# ****************************************************************************
# *  Copyright: National ICT Australia,  2007 - 2010                         *
# *  Developed at the ATP lab, Networked Systems research theme              *
# *  Author(s): Athanassios Boulis, Yuriy Tselishchev                        *
# *  This file is distributed under the terms in the attached LICENSE file.  *
# *  If you do not find this file, copies can be found by writing to:        *
# *                                                                          *
# *      NICTA, Locked Bag 9013, Alexandria, NSW 1435, Australia             *
# *      Attention:  License Inquiry.                                        *
# *                                                                          *
# ***************************************************************************/

[General]

# =============================================
# Always include the main Castalia.ini file
# =============================================
include ../Parameters/Castalia.ini

# Tempo de simulação
#sim-time-limit = 20000s
#sim-time-limit = 4000s
#sim-time-limit = 300s
sim-time-limit = 7200s # 2 horas

SN.field_x = 200	# meters
SN.field_y = 200	# meters

# Aplicação
SN.node[*].ApplicationName = "ThroughputTest"
SN.node[*].nodeApplication.constantDataPayload = 80 # o payload maximo e 120B

# Roteamento
SN.node[*].Communication.RoutingProtocolName = "BypassRouting"

# Camada do Rádio
SN.node[*].Communication.Radio.RadioParametersFile = "../Parameters/Radio/CC2420.txt"
SN.node[*].Communication.Radio.noiseFloor = -87
SN.node[*].Communication.Radio.mode = "normal"
# Name=normal/dataRate(kbps)=250/modulationType=PSK/bitsPerSymbol=4/bandwidth(MHz)=20/noiseBandwidth(MHz)=194/noiseFloor(dBm)=-100/
# sensitivity(dBm)=-95/powerConsumed(mW)=62
SN.node[*].Communication.Radio.state = "RX"
SN.node[*].Communication.Radio.TxOutputPower = "0dBm" #potencia 0dbm
SN.node[*].Communication.Radio.carrierFreq = 2405.0 # The carrier frequency (in MHz) to begin with.
#SN.node[1].Communication.Radio.carrierFreq = 2405.0 # The carrier frequency (in MHz) to begin with.
#SN.node[2].Communication.Radio.carrierFreq = 2410.0 # The carrier frequency (in MHz) to begin with.
#SN.node[3].Communication.Radio.carrierFreq = 2410.0 # The carrier frequency (in MHz) to begin with.
SN.node[*].Communication.Radio.collisionModel = 2 # Additive interference
SN.node[*].Communication.Radio.CCAthreshold = -77.0 # Threshold of the RSSI register (in dBm)
SN.node[*].Communication.Radio.symbolsForRSSI = 8
SN.node[*].Communication.Radio.carrierSenseInterruptEnabled = false
SN.node[*].Communication.Radio.bufferSize = 16
SN.node[*].Communication.Radio.maxPhyFrameSize = 1024
SN.node[*].Communication.Radio.phyFrameOverhead = 6 # in bytes (802.15.4. = 6 bytes)

# Camada do canal wireless
SN.wirelessChannel.onlyStaticNodes = true
# bidirectionalSigma: how variable is the average fade for link B->A if we know the fade of link A->B. Standard of a gaussian random variable
SN.wirelessChannel.bidirectionalSigma = 1.0
# temporalModelParametersFile: the filename that contains all parameters for the temporal channel variation model
SN.wirelessChannel.temporalModelParametersFile = ""
#SN.wirelessChannel.temporalModelParametersFile = ""
# Threshold in dBm above which, wireless channel module is delivering signal messages to radio modules of individual nodes
SN.wirelessChannel.signalDeliveryThreshold = -94
SN.wirelessChannel.meanTimeChange = 30

# Configuração do canal wireless para o Ambiente Padrão descrito na
# documentação
[Config ambPadrao]
SN.wirelessChannel.pathLossExponent = 2.4 # How fast is the signal strength fading
SN.wirelessChannel.PLd0 = 55 # Path loss at reference distance d0 (in dBm)
SN.wirelessChannel.d0 = 1.0 # Reference distance d0 (in meters)
# SIGMA: how variable is the average fade for nodes at the same distance from each other. Standard of a gaussian random variable.
SN.wirelessChannel.sigma = 0

# Configuração do canal wireless para o Ambiente 3
[Config amb3]
SN.wirelessChannel.pathLossExponent = 1.69
SN.wirelessChannel.PLd0 = 80.48
SN.wirelessChannel.d0 = 15
SN.wirelessChannel.sigma = 6.62
SN.wirelessChannel.K = 12.3
SN.wirelessChannel.K_sigma = 5.4

#Numero de nos
SN.numNodes = 35

#positions
SN.node[0].xCoor = 0
SN.node[0].yCoor = 0
SN.node[0].zCoor = 2
SN.node[1].xCoor = 14.012266607
SN.node[1].yCoor = 17.6141258017
SN.node[1].zCoor = 2
SN.node[2].xCoor = 19.4578926091
SN.node[2].yCoor = -12.4222110014
SN.node[2].zCoor = 2
SN.node[3].xCoor = 0.69751707119
SN.node[3].yCoor = 2.73661002766
SN.node[3].zCoor = 2
SN.node[4].xCoor = 2.84899254866
SN.node[4].yCoor = 43.7358593711
SN.node[4].zCoor = 2
SN.node[5].xCoor = 8.99301908738
SN.node[5].yCoor = -21.3788829322
SN.node[5].zCoor = 2
SN.node[6].xCoor = 63.581479811
SN.node[6].yCoor = 27.0816658205
SN.node[6].zCoor = 2
SN.node[7].xCoor = -12.392292166
SN.node[7].yCoor = 22.9794728367
SN.node[7].zCoor = 2
SN.node[8].xCoor = -0.965890537068
SN.node[8].yCoor = 26.3215486281
SN.node[8].zCoor = 2
SN.node[9].xCoor = 45.58411239
SN.node[9].yCoor = -9.76923826925
SN.node[9].zCoor = 2
SN.node[10].xCoor = -29.9222017812
SN.node[10].yCoor = -9.62229864114
SN.node[10].zCoor = 2
SN.node[11].xCoor = -1.02555319666
SN.node[11].yCoor = 58.8229335061
SN.node[11].zCoor = 2
SN.node[12].xCoor = -35.1778245744
SN.node[12].yCoor = 59.950802826
SN.node[12].zCoor = 2
SN.node[13].xCoor = -22.5148361918
SN.node[13].yCoor = 58.3488211537
SN.node[13].zCoor = 2
SN.node[14].xCoor = -8.36367559623
SN.node[14].yCoor = -15.8941751432
SN.node[14].zCoor = 2
SN.node[15].xCoor = -2.97013624615
SN.node[15].yCoor = 40.9667244968
SN.node[15].zCoor = 2
SN.node[16].xCoor = 58.7393730364
SN.node[16].yCoor = 38.0516775537
SN.node[16].zCoor = 2
SN.node[17].xCoor = 62.5510102136
SN.node[17].yCoor = -7.04136420896
SN.node[17].zCoor = 2
SN.node[18].xCoor = 36.7188317774
SN.node[18].yCoor = 40.0128070218
SN.node[18].zCoor = 2
SN.node[19].xCoor = 47.9751419671
SN.node[19].yCoor = 16.3985506121
SN.node[19].zCoor = 2
SN.node[20].xCoor = 3.47441486391
SN.node[20].yCoor = -26.8847677308
SN.node[20].zCoor = 2
SN.node[21].xCoor = -5.18068834316
SN.node[21].yCoor = -59.1261290534
SN.node[21].zCoor = 2
SN.node[22].xCoor = 23.0010526816
SN.node[22].yCoor = -47.6301764751
SN.node[22].zCoor = 2
SN.node[23].xCoor = 46.3989556174
SN.node[23].yCoor = -56.9905368739
SN.node[23].zCoor = 2
SN.node[24].xCoor = -14.6005475443
SN.node[24].yCoor = -9.95311961639
SN.node[24].zCoor = 2
SN.node[25].xCoor = 52.2470870601
SN.node[25].yCoor = -13.884877653
SN.node[25].zCoor = 2
SN.node[26].xCoor = 11.9517420039
SN.node[26].yCoor = -21.5477898824
SN.node[26].zCoor = 2
SN.node[27].xCoor = -23.666829844
SN.node[27].yCoor = 7.08102858815
SN.node[27].zCoor = 2
SN.node[28].xCoor = -13.6345111917
SN.node[28].yCoor = -30.8264414185
SN.node[28].zCoor = 2
SN.node[29].xCoor = 42.9410709538
SN.node[29].yCoor = 36.7148753782
SN.node[29].zCoor = 2
SN.node[30].xCoor = 61.2392828078
SN.node[30].yCoor = -61.8273734481
SN.node[30].zCoor = 2
SN.node[31].xCoor = -5.87001164238
SN.node[31].yCoor = -50.4778415827
SN.node[31].zCoor = 2
SN.node[32].xCoor = 26.2011099199
SN.node[32].yCoor = -1.44026764292
SN.node[32].zCoor = 2
SN.node[33].xCoor = 21.3400605298
SN.node[33].yCoor = -57.6761745946
SN.node[33].zCoor = 2
SN.node[34].xCoor = 8.07910569342
SN.node[34].yCoor = -35.1054581923
SN.node[34].zCoor = 2


[Config abmptree]
SN.node[*].Communication.MACProtocolName = "ABMPTree"
SN.node[*].Communication.treeTopology = true
SN.node[*].Communication.MAC.slotFrameSize = 38
SN.node[*].Communication.MAC.numberOfAttempts = 1
SN.node[*].Communication.MAC.prrThreshold = 0.9
SN.node[*].Communication.MAC.beaconThreshold = 0.9
SN.node[*].Communication.MAC.slotSize = 10
SN.node[0].Communication.MAC.isCoordinator = true
SN.node[0].Communication.MAC.nodeIdSlot = "0000000000000000000000000000000000000102010201020102010201020102010201020102"
SN.node[0].Application.packet_rate = 0
SN.node[0].Communication.MAC.channels = "1111111111111111"
SN.node[1].Communication.MAC.isClusterHead = true
SN.node[1].Communication.MAC.clusterID = 0
SN.node[1].Communication.MAC.macBufferSize = 24
SN.node[1].Communication.MAC.allocatedSlots = "01000000000000000010101010101010101010"
SN.node[1].Communication.MAC.nodeIdSlot = "0001030405060708091011121314151617180100010001000100010001000100010001000100"
SN.node[1].Communication.MAC.channels = "1010101010101010"
SN.node[1].Application.packet_rate = 0
SN.node[2].Communication.MAC.isClusterHead = true
SN.node[2].Communication.MAC.clusterID = 0
SN.node[2].Communication.MAC.macBufferSize = 24
SN.node[2].Communication.MAC.allocatedSlots = "01000000000000000001010101010101010101"
SN.node[2].Communication.MAC.nodeIdSlot = "0002192021222324252627282930313233340002000200020002000200020002000200020002"
SN.node[2].Communication.MAC.channels = "0101010101010101"
SN.node[2].Application.packet_rate = 0
SN.node[3].Communication.MAC.clusterID = 1
SN.node[3].Communication.MAC.macBufferSize = 1
SN.node[3].Communication.MAC.allocatedSlots = "01000000000000000"
SN.node[3].Application.packet_rate = 1
SN.node[4].Communication.MAC.clusterID = 1
SN.node[4].Communication.MAC.macBufferSize = 1
SN.node[4].Communication.MAC.allocatedSlots = "00100000000000000"
SN.node[4].Application.packet_rate = 1
SN.node[5].Communication.MAC.clusterID = 1
SN.node[5].Communication.MAC.macBufferSize = 1
SN.node[5].Communication.MAC.allocatedSlots = "00010000000000000"
SN.node[5].Application.packet_rate = 1
SN.node[6].Communication.MAC.clusterID = 1
SN.node[6].Communication.MAC.macBufferSize = 1
SN.node[6].Communication.MAC.allocatedSlots = "00001000000000000"
SN.node[6].Application.packet_rate = 1
SN.node[7].Communication.MAC.clusterID = 1
SN.node[7].Communication.MAC.macBufferSize = 1
SN.node[7].Communication.MAC.allocatedSlots = "00000100000000000"
SN.node[7].Application.packet_rate = 1
SN.node[8].Communication.MAC.clusterID = 1
SN.node[8].Communication.MAC.macBufferSize = 1
SN.node[8].Communication.MAC.allocatedSlots = "00000010000000000"
SN.node[8].Application.packet_rate = 1
SN.node[9].Communication.MAC.clusterID = 1
SN.node[9].Communication.MAC.macBufferSize = 1
SN.node[9].Communication.MAC.allocatedSlots = "00000001000000000"
SN.node[9].Application.packet_rate = 1
SN.node[10].Communication.MAC.clusterID = 1
SN.node[10].Communication.MAC.macBufferSize = 1
SN.node[10].Communication.MAC.allocatedSlots = "00000000100000000"
SN.node[10].Application.packet_rate = 1
SN.node[11].Communication.MAC.clusterID = 1
SN.node[11].Communication.MAC.macBufferSize = 1
SN.node[11].Communication.MAC.allocatedSlots = "00000000010000000"
SN.node[11].Application.packet_rate = 1
SN.node[12].Communication.MAC.clusterID = 1
SN.node[12].Communication.MAC.macBufferSize = 1
SN.node[12].Communication.MAC.allocatedSlots = "00000000001000000"
SN.node[12].Application.packet_rate = 1
SN.node[13].Communication.MAC.clusterID = 1
SN.node[13].Communication.MAC.macBufferSize = 1
SN.node[13].Communication.MAC.allocatedSlots = "00000000000100000"
SN.node[13].Application.packet_rate = 1
SN.node[14].Communication.MAC.clusterID = 1
SN.node[14].Communication.MAC.macBufferSize = 1
SN.node[14].Communication.MAC.allocatedSlots = "00000000000010000"
SN.node[14].Application.packet_rate = 1
SN.node[15].Communication.MAC.clusterID = 1
SN.node[15].Communication.MAC.macBufferSize = 1
SN.node[15].Communication.MAC.allocatedSlots = "00000000000001000"
SN.node[15].Application.packet_rate = 1
SN.node[16].Communication.MAC.clusterID = 1
SN.node[16].Communication.MAC.macBufferSize = 1
SN.node[16].Communication.MAC.allocatedSlots = "00000000000000100"
SN.node[16].Application.packet_rate = 1
SN.node[17].Communication.MAC.clusterID = 1
SN.node[17].Communication.MAC.macBufferSize = 1
SN.node[17].Communication.MAC.allocatedSlots = "00000000000000010"
SN.node[17].Application.packet_rate = 1
SN.node[18].Communication.MAC.clusterID = 1
SN.node[18].Communication.MAC.macBufferSize = 1
SN.node[18].Communication.MAC.allocatedSlots = "00000000000000001"
SN.node[18].Application.packet_rate = 1
SN.node[19].Communication.MAC.clusterID = 2
SN.node[19].Communication.MAC.macBufferSize = 1
SN.node[19].Communication.MAC.allocatedSlots = "01000000000000000"
SN.node[19].Application.packet_rate = 1
SN.node[20].Communication.MAC.clusterID = 2
SN.node[20].Communication.MAC.macBufferSize = 1
SN.node[20].Communication.MAC.allocatedSlots = "00100000000000000"
SN.node[20].Application.packet_rate = 1
SN.node[21].Communication.MAC.clusterID = 2
SN.node[21].Communication.MAC.macBufferSize = 1
SN.node[21].Communication.MAC.allocatedSlots = "00010000000000000"
SN.node[21].Application.packet_rate = 1
SN.node[22].Communication.MAC.clusterID = 2
SN.node[22].Communication.MAC.macBufferSize = 1
SN.node[22].Communication.MAC.allocatedSlots = "00001000000000000"
SN.node[22].Application.packet_rate = 1
SN.node[23].Communication.MAC.clusterID = 2
SN.node[23].Communication.MAC.macBufferSize = 1
SN.node[23].Communication.MAC.allocatedSlots = "00000100000000000"
SN.node[23].Application.packet_rate = 1
SN.node[24].Communication.MAC.clusterID = 2
SN.node[24].Communication.MAC.macBufferSize = 1
SN.node[24].Communication.MAC.allocatedSlots = "00000010000000000"
SN.node[24].Application.packet_rate = 1
SN.node[25].Communication.MAC.clusterID = 2
SN.node[25].Communication.MAC.macBufferSize = 1
SN.node[25].Communication.MAC.allocatedSlots = "00000001000000000"
SN.node[25].Application.packet_rate = 1
SN.node[26].Communication.MAC.clusterID = 2
SN.node[26].Communication.MAC.macBufferSize = 1
SN.node[26].Communication.MAC.allocatedSlots = "00000000100000000"
SN.node[26].Application.packet_rate = 1
SN.node[27].Communication.MAC.clusterID = 2
SN.node[27].Communication.MAC.macBufferSize = 1
SN.node[27].Communication.MAC.allocatedSlots = "00000000010000000"
SN.node[27].Application.packet_rate = 1
SN.node[28].Communication.MAC.clusterID = 2
SN.node[28].Communication.MAC.macBufferSize = 1
SN.node[28].Communication.MAC.allocatedSlots = "00000000001000000"
SN.node[28].Application.packet_rate = 1
SN.node[29].Communication.MAC.clusterID = 2
SN.node[29].Communication.MAC.macBufferSize = 1
SN.node[29].Communication.MAC.allocatedSlots = "00000000000100000"
SN.node[29].Application.packet_rate = 1
SN.node[30].Communication.MAC.clusterID = 2
SN.node[30].Communication.MAC.macBufferSize = 1
SN.node[30].Communication.MAC.allocatedSlots = "00000000000010000"
SN.node[30].Application.packet_rate = 1
SN.node[31].Communication.MAC.clusterID = 2
SN.node[31].Communication.MAC.macBufferSize = 1
SN.node[31].Communication.MAC.allocatedSlots = "00000000000001000"
SN.node[31].Application.packet_rate = 1
SN.node[32].Communication.MAC.clusterID = 2
SN.node[32].Communication.MAC.macBufferSize = 1
SN.node[32].Communication.MAC.allocatedSlots = "00000000000000100"
SN.node[32].Application.packet_rate = 1
SN.node[33].Communication.MAC.clusterID = 2
SN.node[33].Communication.MAC.macBufferSize = 1
SN.node[33].Communication.MAC.allocatedSlots = "00000000000000010"
SN.node[33].Application.packet_rate = 1
SN.node[34].Communication.MAC.clusterID = 2
SN.node[34].Communication.MAC.macBufferSize = 1
SN.node[34].Communication.MAC.allocatedSlots = "00000000000000001"
SN.node[34].Application.packet_rate = 1


[Config tschtree]
SN.node[*].Communication.MACProtocolName = "SimpleTSCHTree"
SN.node[*].Communication.MAC.slotFrameSize = 36
SN.node[*].Communication.MAC.numberOfAttempts = 1
SN.node[*].Communication.MAC.slotSize = 10
SN.node[0].Communication.MAC.isCoordinator = true
SN.node[0].Application.packet_rate = 0
SN.node[0].Communication.MAC.nodeIdSlot = "000000000000000000000000000000000102010201020102010201020102010201020102"
SN.node[1].Communication.MAC.isClusterHead = true
SN.node[1].Communication.MAC.clusterID = 0
SN.node[1].Communication.MAC.macBufferSize = 24
SN.node[1].Communication.MAC.nodeIdSlot = "030405060708091011121314151617180100010001000100010001000100010001000100"
SN.node[1].Application.packet_rate = 0
SN.node[2].Communication.MAC.isClusterHead = true
SN.node[2].Communication.MAC.clusterID = 0
SN.node[2].Communication.MAC.macBufferSize = 24
SN.node[2].Communication.MAC.nodeIdSlot = "343332313029282726252423222120190002000200020002000200020002000200020002"
SN.node[2].Application.packet_rate = 0
SN.node[3].Communication.MAC.clusterID = 1
SN.node[3].Communication.MAC.macBufferSize = 1
SN.node[3].Communication.MAC.nodeIdSlot = "030000000000000000000000000000000000000000000000000000000000000000000000"
SN.node[3].Application.packet_rate = 1
SN.node[4].Communication.MAC.clusterID = 1
SN.node[4].Communication.MAC.macBufferSize = 1
SN.node[4].Communication.MAC.nodeIdSlot = "000400000000000000000000000000000000000000000000000000000000000000000000"
SN.node[4].Application.packet_rate = 1
SN.node[5].Communication.MAC.clusterID = 1
SN.node[5].Communication.MAC.macBufferSize = 1
SN.node[5].Communication.MAC.nodeIdSlot = "000005000000000000000000000000000000000000000000000000000000000000000000"
SN.node[5].Application.packet_rate = 1
SN.node[6].Communication.MAC.clusterID = 1
SN.node[6].Communication.MAC.macBufferSize = 1
SN.node[6].Communication.MAC.nodeIdSlot = "000000060000000000000000000000000000000000000000000000000000000000000000"
SN.node[6].Application.packet_rate = 1
SN.node[7].Communication.MAC.clusterID = 1
SN.node[7].Communication.MAC.macBufferSize = 1
SN.node[7].Communication.MAC.nodeIdSlot = "000000000700000000000000000000000000000000000000000000000000000000000000"
SN.node[7].Application.packet_rate = 1
SN.node[8].Communication.MAC.clusterID = 1
SN.node[8].Communication.MAC.macBufferSize = 1
SN.node[8].Communication.MAC.nodeIdSlot = "000000000008000000000000000000000000000000000000000000000000000000000000"
SN.node[8].Application.packet_rate = 1
SN.node[9].Communication.MAC.clusterID = 1
SN.node[9].Communication.MAC.macBufferSize = 1
SN.node[9].Communication.MAC.nodeIdSlot = "000000000000090000000000000000000000000000000000000000000000000000000000"
SN.node[9].Application.packet_rate = 1
SN.node[10].Communication.MAC.clusterID = 1
SN.node[10].Communication.MAC.macBufferSize = 1
SN.node[10].Communication.MAC.nodeIdSlot = "000000000000001000000000000000000000000000000000000000000000000000000000"
SN.node[10].Application.packet_rate = 1
SN.node[11].Communication.MAC.clusterID = 1
SN.node[11].Communication.MAC.macBufferSize = 1
SN.node[11].Communication.MAC.nodeIdSlot = "000000000000000011000000000000000000000000000000000000000000000000000000"
SN.node[11].Application.packet_rate = 1
SN.node[12].Communication.MAC.clusterID = 1
SN.node[12].Communication.MAC.macBufferSize = 1
SN.node[12].Communication.MAC.nodeIdSlot = "000000000000000000120000000000000000000000000000000000000000000000000000"
SN.node[12].Application.packet_rate = 1
SN.node[13].Communication.MAC.clusterID = 1
SN.node[13].Communication.MAC.macBufferSize = 1
SN.node[13].Communication.MAC.nodeIdSlot = "000000000000000000001300000000000000000000000000000000000000000000000000"
SN.node[13].Application.packet_rate = 1
SN.node[14].Communication.MAC.clusterID = 1
SN.node[14].Communication.MAC.macBufferSize = 1
SN.node[14].Communication.MAC.nodeIdSlot = "000000000000000000000014000000000000000000000000000000000000000000000000"
SN.node[14].Application.packet_rate = 1
SN.node[15].Communication.MAC.clusterID = 1
SN.node[15].Communication.MAC.macBufferSize = 1
SN.node[15].Communication.MAC.nodeIdSlot = "000000000000000000000000150000000000000000000000000000000000000000000000"
SN.node[15].Application.packet_rate = 1
SN.node[16].Communication.MAC.clusterID = 1
SN.node[16].Communication.MAC.macBufferSize = 1
SN.node[16].Communication.MAC.nodeIdSlot = "000000000000000000000000001600000000000000000000000000000000000000000000"
SN.node[16].Application.packet_rate = 1
SN.node[17].Communication.MAC.clusterID = 1
SN.node[17].Communication.MAC.macBufferSize = 1
SN.node[17].Communication.MAC.nodeIdSlot = "000000000000000000000000000017000000000000000000000000000000000000000000"
SN.node[17].Application.packet_rate = 1
SN.node[18].Communication.MAC.clusterID = 1
SN.node[18].Communication.MAC.macBufferSize = 1
SN.node[18].Communication.MAC.nodeIdSlot = "000000000000000000000000000000180000000000000000000000000000000000000000"
SN.node[18].Application.packet_rate = 1
SN.node[19].Communication.MAC.clusterID = 2
SN.node[19].Communication.MAC.macBufferSize = 1
SN.node[19].Communication.MAC.nodeIdSlot = "000000000000000000000000000000190000000000000000000000000000000000000000"
SN.node[19].Application.packet_rate = 1
SN.node[20].Communication.MAC.clusterID = 2
SN.node[20].Communication.MAC.macBufferSize = 1
SN.node[20].Communication.MAC.nodeIdSlot = "000000000000000000000000000020000000000000000000000000000000000000000000"
SN.node[20].Application.packet_rate = 1
SN.node[21].Communication.MAC.clusterID = 2
SN.node[21].Communication.MAC.macBufferSize = 1
SN.node[21].Communication.MAC.nodeIdSlot = "000000000000000000000000002100000000000000000000000000000000000000000000"
SN.node[21].Application.packet_rate = 1
SN.node[22].Communication.MAC.clusterID = 2
SN.node[22].Communication.MAC.macBufferSize = 1
SN.node[22].Communication.MAC.nodeIdSlot = "000000000000000000000000220000000000000000000000000000000000000000000000"
SN.node[22].Application.packet_rate = 1
SN.node[23].Communication.MAC.clusterID = 2
SN.node[23].Communication.MAC.macBufferSize = 1
SN.node[23].Communication.MAC.nodeIdSlot = "000000000000000000000023000000000000000000000000000000000000000000000000"
SN.node[23].Application.packet_rate = 1
SN.node[24].Communication.MAC.clusterID = 2
SN.node[24].Communication.MAC.macBufferSize = 1
SN.node[24].Communication.MAC.nodeIdSlot = "000000000000000000002400000000000000000000000000000000000000000000000000"
SN.node[24].Application.packet_rate = 1
SN.node[25].Communication.MAC.clusterID = 2
SN.node[25].Communication.MAC.macBufferSize = 1
SN.node[25].Communication.MAC.nodeIdSlot = "000000000000000000250000000000000000000000000000000000000000000000000000"
SN.node[25].Application.packet_rate = 1
SN.node[26].Communication.MAC.clusterID = 2
SN.node[26].Communication.MAC.macBufferSize = 1
SN.node[26].Communication.MAC.nodeIdSlot = "000000000000000026000000000000000000000000000000000000000000000000000000"
SN.node[26].Application.packet_rate = 1
SN.node[27].Communication.MAC.clusterID = 2
SN.node[27].Communication.MAC.macBufferSize = 1
SN.node[27].Communication.MAC.nodeIdSlot = "000000000000002700000000000000000000000000000000000000000000000000000000"
SN.node[27].Application.packet_rate = 1
SN.node[28].Communication.MAC.clusterID = 2
SN.node[28].Communication.MAC.macBufferSize = 1
SN.node[28].Communication.MAC.nodeIdSlot = "000000000000280000000000000000000000000000000000000000000000000000000000"
SN.node[28].Application.packet_rate = 1
SN.node[29].Communication.MAC.clusterID = 2
SN.node[29].Communication.MAC.macBufferSize = 1
SN.node[29].Communication.MAC.nodeIdSlot = "000000000029000000000000000000000000000000000000000000000000000000000000"
SN.node[29].Application.packet_rate = 1
SN.node[30].Communication.MAC.clusterID = 2
SN.node[30].Communication.MAC.macBufferSize = 1
SN.node[30].Communication.MAC.nodeIdSlot = "000000003000000000000000000000000000000000000000000000000000000000000000"
SN.node[30].Application.packet_rate = 1
SN.node[31].Communication.MAC.clusterID = 2
SN.node[31].Communication.MAC.macBufferSize = 1
SN.node[31].Communication.MAC.nodeIdSlot = "000000310000000000000000000000000000000000000000000000000000000000000000"
SN.node[31].Application.packet_rate = 1
SN.node[32].Communication.MAC.clusterID = 2
SN.node[32].Communication.MAC.macBufferSize = 1
SN.node[32].Communication.MAC.nodeIdSlot = "000032000000000000000000000000000000000000000000000000000000000000000000"
SN.node[32].Application.packet_rate = 1
SN.node[33].Communication.MAC.clusterID = 2
SN.node[33].Communication.MAC.macBufferSize = 1
SN.node[33].Communication.MAC.nodeIdSlot = "003300000000000000000000000000000000000000000000000000000000000000000000"
SN.node[33].Application.packet_rate = 1
SN.node[34].Communication.MAC.clusterID = 2
SN.node[34].Communication.MAC.macBufferSize = 1
SN.node[34].Communication.MAC.nodeIdSlot = "340000000000000000000000000000000000000000000000000000000000000000000000"
SN.node[34].Application.packet_rate = 1

[Config top1]
SN.wirelessChannel.seed = 21

[Config top2]
SN.wirelessChannel.seed = 22

[Config top3]
SN.wirelessChannel.seed = 23

[Config top4]
SN.wirelessChannel.seed = 24

[Config top5]
SN.wirelessChannel.seed = 25

# Mostra todas as informações no arquivo Castalia-Result
[Config debugALL]
SN.node[*].Application.collectTraceInfo = true
SN.node[*].Application.printStateTransitions = false
SN.node[*].Communication.MAC.collectTraceInfo = true
SN.node[*].Communication.MAC.printStateTransitions = true
SN.node[*].Communication.Radio.collectTraceInfo = false
SN.wirelessChannel.collectTraceInfo = false


[Config abmptree_old]
SN.node[*].Communication.MACProtocolName = "ABMPTree"
SN.node[0].Communication.MAC.isCoordinator = true
SN.node[1].Communication.MAC.isClusterHead = true
SN.node[1].Communication.MAC.clusterID = 0
SN.node[*].Communication.MAC.slotFrameSize = 5
SN.node[1].Communication.MAC.allocatedSlots = "00001" # becon_s becon_ch tx_2 tx_3 tx_ch
SN.node[2].Communication.MAC.allocatedSlots = "010" #timeslot regarding its cluster => beacon_ch tx2
SN.node[3].Communication.MAC.allocatedSlots = "001"
SN.node[2].Communication.MAC.clusterID = 1
SN.node[3].Communication.MAC.clusterID = 1
SN.node[*].Communication.MAC.qtdNodesCluster = 5
SN.node[0].Communication.MAC.nodeIdSlot = "0000000001"
SN.node[1].Communication.MAC.nodeIdSlot = "0001020301"
SN.node[*].Communication.MAC.numberOfAttempts = 1
SN.node[*].Communication.MAC.channelDiversity = 2
SN.node[*].Communication.MAC.prrThreshold = 0.9
SN.node[*].Communication.MAC.beaconThreshold = 0.9
SN.node[2].Communication.MAC.macBufferSize = 1
SN.node[3].Communication.MAC.macBufferSize = 1
SN.node[1].Communication.MAC.macBufferSize = 3
SN.node[*].Communication.MAC.slotSize = 10

[Config csmaca]
SN.node[*].Communication.MACProtocolName = "CC2420Mac"
SN.node[*].Communication.MAC.txFifoWriteTimeout = 0
SN.node[*].Communication.MAC.enableCCA = true
SN.node[*].Communication.MAC.datarate = 250000 #must be the same than Radio module
SN.node[*].Communication.MAC.phyFrameOverhead = 6 #must be the same than Radio module
SN.node[*].Communication.MAC.macAckOverhead = 5 
SN.node[*].Communication.MAC.ackEnabled = true
SN.node[0].Communication.MAC.isCoordinator = true


[Config bypassMAC]
SN.node[*].Communication.MACProtocolName = "BypassMAC"

[Config camadaTunableMAC]
SN.node[*].Communication.MACProtocolName = "TunableMAC"
SN.node[*].numTx = 4
SN.node[*].txAllPacketsInFreeChannel = false
SN.node[*].backoffType = 3
SN.node[*].backoffBaseValue = 2
SN.node[*].randomTxOffset = 2

[Config camada802154]
# Camada MAC
SN.node[*].Communication.MACProtocolName = "Mac802154"
SN.node[0].Communication.MAC.isFFD = true 
SN.node[0].Communication.MAC.isPANCoordinator = true
SN.node[2].Communication.MAC.isFFD = true 
SN.node[2].Communication.MAC.isPANCoordinator = true
# Camada MAC (Parâmetros Default)
SN.node[*].Communication.MAC.macMaxPacketSize = 0
SN.node[*].Communication.MAC.macPacketOverhead = 14
SN.node[*].Communication.MAC.macBufferSize = 32
SN.node[*].Communication.MAC.enableSlottedCSMA = true
SN.node[*].Communication.MAC.enableCAP = true
SN.node[*].Communication.MAC.batteryLifeExtention = false
SN.node[*].Communication.MAC.frameOrder = 4
SN.node[*].Communication.MAC.beaconOrder = 6
SN.node[*].Communication.MAC.unitBackoffPeriod = 20
SN.node[*].Communication.MAC.baseSlotDuration = 60
SN.node[*].Communication.MAC.numSuperframeSlots = 16
SN.node[*].Communication.MAC.macMinBE = 5
SN.node[*].Communication.MAC.macMaxBE = 7
SN.node[*].Communication.MAC.macMaxCSMABackoffs = 4
SN.node[*].Communication.MAC.macMaxFrameRetries = 2
SN.node[*].Communication.MAC.maxLostBeacons = 4
SN.node[*].Communication.MAC.minCAPLength = 440
SN.node[*].Communication.MAC.requestGTS = 0
# Camada MAC (Parameters dependent on physical layer)
# Some are essential and are not defined as default
SN.node[*].Communication.MAC.phyDelayForValidCS = 0.128
SN.node[*].Communication.MAC.phyDataRate = 250
SN.node[*].Communication.MAC.phyDelaySleep2Tx = 0.2
SN.node[*].Communication.MAC.phyDelayRx2Tx = 0.02
SN.node[*].Communication.MAC.phyFrameOverhead = 6
SN.node[*].Communication.MAC.phyBitsPerSymbol = 4
# Reception guard time, in ms
SN.node[*].Communication.MAC.guardTime = 1
