# ****************************************************************************
# *  Copyright: National ICT Australia,  2007 - 2010                         *
# *  Developed at the ATP lab, Networked Systems research theme              *
# *  Author(s): Athanassios Boulis, Yuriy Tselishchev                        *
# *  This file is distributed under the terms in the attached LICENSE file.  *
# *  If you do not find this file, copies can be found by writing to:        *
# *                                                                          *
# *      NICTA, Locked Bag 9013, Alexandria, NSW 1435, Australia             *
# *      Attention:  License Inquiry.                                        *
# *                                                                          *
# ***************************************************************************/

[General]

# =============================================
# Always include the main Castalia.ini file
# =============================================
include ../Parameters/Castalia.ini

# Tempo de simulação
#sim-time-limit = 20000s
#sim-time-limit = 4000s
#sim-time-limit = 300s
sim-time-limit = 2000s #18000s # 5 horas 7200s # 2 horas

SN.field_x = 200	# meters
SN.field_y = 200	# meters

# Aplicação
SN.node[*].ApplicationName = "ThroughputTest"
SN.node[*].nodeApplication.constantDataPayload = 80 # o payload maximo e 120B

# Roteamento
SN.node[*].Communication.RoutingProtocolName = "BypassRouting"

# Camada do Rádio
SN.node[*].Communication.Radio.RadioParametersFile = "../Parameters/Radio/CC2420.txt"
SN.node[*].Communication.Radio.noiseFloor = -87
SN.node[*].Communication.Radio.mode = "normal"
# Name=normal/dataRate(kbps)=250/modulationType=PSK/bitsPerSymbol=4/bandwidth(MHz)=20/noiseBandwidth(MHz)=194/noiseFloor(dBm)=-100/
# sensitivity(dBm)=-95/powerConsumed(mW)=62
SN.node[*].Communication.Radio.state = "RX"
SN.node[*].Communication.Radio.TxOutputPower = "0dBm" #potencia 0dbm
SN.node[*].Communication.Radio.carrierFreq = 2405.0 # The carrier frequency (in MHz) to begin with.
#SN.node[1].Communication.Radio.carrierFreq = 2405.0 # The carrier frequency (in MHz) to begin with.
#SN.node[2].Communication.Radio.carrierFreq = 2410.0 # The carrier frequency (in MHz) to begin with.
#SN.node[3].Communication.Radio.carrierFreq = 2410.0 # The carrier frequency (in MHz) to begin with.
SN.node[*].Communication.Radio.collisionModel = 2 # Additive interference
SN.node[*].Communication.Radio.CCAthreshold = -77.0 # Threshold of the RSSI register (in dBm)
SN.node[*].Communication.Radio.symbolsForRSSI = 8
SN.node[*].Communication.Radio.carrierSenseInterruptEnabled = false
SN.node[*].Communication.Radio.bufferSize = 16
SN.node[*].Communication.Radio.maxPhyFrameSize = 1024
SN.node[*].Communication.Radio.phyFrameOverhead = 6 # in bytes (802.15.4. = 6 bytes)

# Camada do canal wireless
SN.wirelessChannel.onlyStaticNodes = true
# bidirectionalSigma: how variable is the average fade for link B->A if we know the fade of link A->B. Standard of a gaussian random variable
SN.wirelessChannel.bidirectionalSigma = 1.0
# temporalModelParametersFile: the filename that contains all parameters for the temporal channel variation model
SN.wirelessChannel.temporalModelParametersFile = ""
#SN.wirelessChannel.temporalModelParametersFile = ""
# Threshold in dBm above which, wireless channel module is delivering signal messages to radio modules of individual nodes
SN.wirelessChannel.signalDeliveryThreshold = -94
SN.wirelessChannel.meanTimeChange = 30

# Configuração do canal wireless para o Ambiente Padrão descrito na
# documentação
[Config ambPadrao]
SN.wirelessChannel.pathLossExponent = 2.4 # How fast is the signal strength fading
SN.wirelessChannel.PLd0 = 55 # Path loss at reference distance d0 (in dBm)
SN.wirelessChannel.d0 = 1.0 # Reference distance d0 (in meters)
# SIGMA: how variable is the average fade for nodes at the same distance from each other. Standard of a gaussian random variable.
SN.wirelessChannel.sigma = 0

# Configuração do canal wireless para o Ambiente 3
[Config amb3]
SN.wirelessChannel.pathLossExponent = 1.69
SN.wirelessChannel.PLd0 = 80.48
SN.wirelessChannel.d0 = 15
SN.wirelessChannel.sigma = 6.62
SN.wirelessChannel.K = 12.3
SN.wirelessChannel.K_sigma = 5.4

#Numero de nos
SN.numNodes = 37

[Config top1]
#positions
SN.node[0].xCoor = 0
SN.node[0].yCoor = 0
SN.node[0].zCoor = 2
SN.node[1].xCoor = -12.0475028043
SN.node[1].yCoor = 6.41846623047
SN.node[1].zCoor = 2
SN.node[2].xCoor = 8.86017987273
SN.node[2].yCoor = 14.5090526587
SN.node[2].zCoor = 2
SN.node[3].xCoor = 4.05420074724
SN.node[3].yCoor = 6.8945951624
SN.node[3].zCoor = 2
SN.node[4].xCoor = 22.5053644573
SN.node[4].yCoor = -3.22466665181
SN.node[4].zCoor = 2
SN.node[5].xCoor = 8.41467957773
SN.node[5].yCoor = 41.1651084912
SN.node[5].zCoor = 2
SN.node[6].xCoor = 25.9655542182
SN.node[6].yCoor = 33.497485594
SN.node[6].zCoor = 2
SN.node[7].xCoor = -38.8757951618
SN.node[7].yCoor = -3.27380878016
SN.node[7].zCoor = 2
SN.node[8].xCoor = -15.7455241857
SN.node[8].yCoor = 38.5542593388
SN.node[8].zCoor = 2
SN.node[9].xCoor = 25.7996404845
SN.node[9].yCoor = 42.9632127348
SN.node[9].zCoor = 2
SN.node[10].xCoor = 27.596850291
SN.node[10].yCoor = 38.6029763655
SN.node[10].zCoor = 2
SN.node[11].xCoor = 9.20557364215
SN.node[11].yCoor = -15.293090917
SN.node[11].zCoor = 2
SN.node[12].xCoor = 12.0807521704
SN.node[12].yCoor = 6.10838045837
SN.node[12].zCoor = 2
SN.node[13].xCoor = 14.1530932319
SN.node[13].yCoor = -4.22039342231
SN.node[13].zCoor = 2
SN.node[14].xCoor = 5.22373779534
SN.node[14].yCoor = -19.4484766649
SN.node[14].zCoor = 2
SN.node[15].xCoor = -28.2665545668
SN.node[15].yCoor = -3.34515899309
SN.node[15].zCoor = 2
SN.node[16].xCoor = 2.03822399193
SN.node[16].yCoor = 29.85828791
SN.node[16].zCoor = 2
SN.node[17].xCoor = -0.306344656262
SN.node[17].yCoor = 3.76862279657
SN.node[17].zCoor = 2
SN.node[18].xCoor = 12.3560173408
SN.node[18].yCoor = 51.3533059787
SN.node[18].zCoor = 2
SN.node[19].xCoor = -25.380852601
SN.node[19].yCoor = 34.4133778352
SN.node[19].zCoor = 2
SN.node[20].xCoor = 46.1656492184
SN.node[20].yCoor = 42.8908924325
SN.node[20].zCoor = 2
SN.node[21].xCoor = -14.3555289402
SN.node[21].yCoor = 5.79156859253
SN.node[21].zCoor = 2
SN.node[22].xCoor = 33.0847548633
SN.node[22].yCoor = -24.5071197867
SN.node[22].zCoor = 2
SN.node[23].xCoor = 15.0511317103
SN.node[23].yCoor = 3.37160857649
SN.node[23].zCoor = 2
SN.node[24].xCoor = -0.755786520904
SN.node[24].yCoor = -11.3635967886
SN.node[24].zCoor = 2
SN.node[25].xCoor = -26.8815264044
SN.node[25].yCoor = -26.8959031513
SN.node[25].zCoor = 2
SN.node[26].xCoor = 37.2227211874
SN.node[26].yCoor = -25.8139044013
SN.node[26].zCoor = 2
SN.node[27].xCoor = -34.6470231375
SN.node[27].yCoor = 28.9391596334
SN.node[27].zCoor = 2
SN.node[28].xCoor = -22.9895069659
SN.node[28].yCoor = 41.507505569
SN.node[28].zCoor = 2
SN.node[29].xCoor = 41.9246619774
SN.node[29].yCoor = 13.1364894464
SN.node[29].zCoor = 2
SN.node[30].xCoor = 21.7861321423
SN.node[30].yCoor = -4.40270057292
SN.node[30].zCoor = 2
SN.node[31].xCoor = -2.96064813075
SN.node[31].yCoor = -30.0644059698
SN.node[31].zCoor = 2
SN.node[32].xCoor = 40.0172238212
SN.node[32].yCoor = -31.6111829067
SN.node[32].zCoor = 2
SN.node[33].xCoor = -15.2263525096
SN.node[33].yCoor = 16.3917146889
SN.node[33].zCoor = 2
SN.node[34].xCoor = 23.2134334724
SN.node[34].yCoor = -12.4854409375
SN.node[34].zCoor = 2
SN.node[35].xCoor = 54.2281478721
SN.node[35].yCoor = 29.3086225058
SN.node[35].zCoor = 2
SN.node[36].xCoor = 50.9983945196
SN.node[36].yCoor = 25.6032218815
SN.node[36].zCoor = 2
# 13.6506055753
# 17.0004528302
# 7.99824894288
# 22.7352128728
# 40.3240629926
# 46.6718951179
# 28.5253828317
# 32.3478679488
# 52.6110706239
# 51.0638563465
# 30.3823134769
# 24.1302474358
# 19.4629669457
# 34.1516838347
# 41.196690205
# 16.7969671322
# 14.1202693163
# 37.0097268608
# 39.6059397767
# 46.8745866333
# 18.4427442312
# 42.7649479602
# 11.5474640112
# 18.8811427313
# 45.8128474414
# 46.583223288
# 44.5392810101
# 43.9251146121
# 25.3928443669
# 1.38023876276
# 36.9985054265
# 33.353553386
# 42.5262846035
# 9.28780394387
# 45.4395190445
# 40.5327018519
SN.wirelessChannel.seed = 21

[Config top2]
SN.node[0].xCoor = 0
SN.node[0].yCoor = 0
SN.node[0].zCoor = 2
SN.node[1].xCoor = 9.14540991943
SN.node[1].yCoor = 7.04774009692
SN.node[1].zCoor = 2
SN.node[2].xCoor = -23.5022009339
SN.node[2].yCoor = 16.8443416156
SN.node[2].zCoor = 2
SN.node[3].xCoor = 11.2309479461
SN.node[3].yCoor = -27.0582406836
SN.node[3].zCoor = 2
SN.node[4].xCoor = 1.99122250094
SN.node[4].yCoor = 21.4839458136
SN.node[4].zCoor = 2
SN.node[5].xCoor = 7.8571431038
SN.node[5].yCoor = 17.20112632
SN.node[5].zCoor = 2
SN.node[6].xCoor = 40.3007402814
SN.node[6].yCoor = -29.8855205813
SN.node[6].zCoor = 2
SN.node[7].xCoor = -20.0029883
SN.node[7].yCoor = 29.3195552229
SN.node[7].zCoor = 2
SN.node[8].xCoor = 24.1128174168
SN.node[8].yCoor = 25.2761822308
SN.node[8].zCoor = 2
SN.node[9].xCoor = -7.72898837602
SN.node[9].yCoor = 37.2699677385
SN.node[9].zCoor = 2
SN.node[10].xCoor = 34.1610595186
SN.node[10].yCoor = -1.18558907311
SN.node[10].zCoor = 2
SN.node[11].xCoor = 38.9128556963
SN.node[11].yCoor = -3.48019701625
SN.node[11].zCoor = 2
SN.node[12].xCoor = 18.5936345348
SN.node[12].yCoor = -5.70980559076
SN.node[12].zCoor = 2
SN.node[13].xCoor = -19.0743222979
SN.node[13].yCoor = 6.67465049256
SN.node[13].zCoor = 2
SN.node[14].xCoor = -39.2764605579
SN.node[14].yCoor = 1.47867389214
SN.node[14].zCoor = 2
SN.node[15].xCoor = -10.9478041401
SN.node[15].yCoor = 51.2016481003
SN.node[15].zCoor = 2
SN.node[16].xCoor = -49.9044699378
SN.node[16].yCoor = -11.8119872179
SN.node[16].zCoor = 2
SN.node[17].xCoor = 14.1990282879
SN.node[17].yCoor = -7.36887378075
SN.node[17].zCoor = 2
SN.node[18].xCoor = 3.59815836905
SN.node[18].yCoor = 12.5453282267
SN.node[18].zCoor = 2
SN.node[19].xCoor = -9.99482798339
SN.node[19].yCoor = 32.1677573686
SN.node[19].zCoor = 2
SN.node[20].xCoor = -62.5207995184
SN.node[20].yCoor = -22.0757744747
SN.node[20].zCoor = 2
SN.node[21].xCoor = -9.62503345017
SN.node[21].yCoor = -25.5526914691
SN.node[21].zCoor = 2
SN.node[22].xCoor = 4.18965978924
SN.node[22].yCoor = -14.6805220785
SN.node[22].zCoor = 2
SN.node[23].xCoor = -27.7387399075
SN.node[23].yCoor = -44.707557589
SN.node[23].zCoor = 2
SN.node[24].xCoor = 19.1993752159
SN.node[24].yCoor = 12.2794944346
SN.node[24].zCoor = 2
SN.node[25].xCoor = 20.2085167476
SN.node[25].yCoor = -42.8485006704
SN.node[25].zCoor = 2
SN.node[26].xCoor = 24.5865140994
SN.node[26].yCoor = -54.0313126967
SN.node[26].zCoor = 2
SN.node[27].xCoor = 28.3260072395
SN.node[27].yCoor = -55.8923178995
SN.node[27].zCoor = 2
SN.node[28].xCoor = -10.4207948163
SN.node[28].yCoor = -8.80567577676
SN.node[28].zCoor = 2
SN.node[29].xCoor = -19.8331513092
SN.node[29].yCoor = 21.4716601205
SN.node[29].zCoor = 2
SN.node[30].xCoor = 36.1094856358
SN.node[30].yCoor = -7.17586852915
SN.node[30].zCoor = 2
SN.node[31].xCoor = -13.1024464601
SN.node[31].yCoor = 40.9247631077
SN.node[31].zCoor = 2
SN.node[32].xCoor = -31.3896763457
SN.node[32].yCoor = 21.4645075453
SN.node[32].zCoor = 2
SN.node[33].xCoor = -23.994731395
SN.node[33].yCoor = -9.11669072699
SN.node[33].zCoor = 2
SN.node[34].xCoor = 39.4118801819
SN.node[34].yCoor = -6.34881807689
SN.node[34].zCoor = 2
SN.node[35].xCoor = -11.7299317817
SN.node[35].yCoor = 31.9738452408
SN.node[35].zCoor = 2
SN.node[36].xCoor = -21.1605543201
SN.node[36].yCoor = 14.4752360211
SN.node[36].zCoor = 2
# 11.5459587332
# 28.9151395155
# 29.296460207
# 21.5760259263
# 10.2347878915
# 48.3189440518
# 36.6832777674
# 23.585999869
# 34.6139908339
# 26.3357254332
# 31.5743295722
# 15.8752612689
# 11.0918315328
# 22.0211491814
# 36.5791933719
# 38.964920002
# 44.8069468349
# 27.4392235763
# 20.4268498395
# 55.1110376601
# 20.9102519937
# 14.2403531127
# 42.7800766553
# 40.1366819429
# 18.1639492412
# 30.0984677534
# 33.5208153412
# 28.3187939419
# 21.8243772681
# 44.5582858457
# 24.6122778256
# 33.3809045063
# 40.1455944852
# 46.6365561235
# 17.2715970553
# 24.1893940173
SN.wirelessChannel.seed = 22

[Config top3]
SN.node[0].xCoor = 0
SN.node[0].yCoor = 0
SN.node[0].zCoor = 2
SN.node[1].xCoor = -1.82044951816
SN.node[1].yCoor = -14.2105909134
SN.node[1].zCoor = 2
SN.node[2].xCoor = 6.16226663509
SN.node[2].yCoor = -10.4596743795
SN.node[2].zCoor = 2
SN.node[3].xCoor = 28.6704817531
SN.node[3].yCoor = 11.9151933761
SN.node[3].zCoor = 2
SN.node[4].xCoor = -9.0801314125
SN.node[4].yCoor = -12.5440550123
SN.node[4].zCoor = 2
SN.node[5].xCoor = -13.3376184239
SN.node[5].yCoor = -21.5993601718
SN.node[5].zCoor = 2
SN.node[6].xCoor = 2.96861024502
SN.node[6].yCoor = 22.2607853719
SN.node[6].zCoor = 2
SN.node[7].xCoor = -22.9976413483
SN.node[7].yCoor = -31.4109689458
SN.node[7].zCoor = 2
SN.node[8].xCoor = -4.06983881863
SN.node[8].yCoor = -26.6072205486
SN.node[8].zCoor = 2
SN.node[9].xCoor = -12.5365151382
SN.node[9].yCoor = -53.2043780499
SN.node[9].zCoor = 2
SN.node[10].xCoor = -15.8761905741
SN.node[10].yCoor = -13.8531475165
SN.node[10].zCoor = 2
SN.node[11].xCoor = 33.1941187161
SN.node[11].yCoor = -29.3364439113
SN.node[11].zCoor = 2
SN.node[12].xCoor = -17.3834277623
SN.node[12].yCoor = 11.556574021
SN.node[12].zCoor = 2
SN.node[13].xCoor = 0.298496796288
SN.node[13].yCoor = 19.2710419902
SN.node[13].zCoor = 2
SN.node[14].xCoor = 14.1917787844
SN.node[14].yCoor = -48.5600916338
SN.node[14].zCoor = 2
SN.node[15].xCoor = 16.0795405447
SN.node[15].yCoor = -23.6289631097
SN.node[15].zCoor = 2
SN.node[16].xCoor = 6.63669944005
SN.node[16].yCoor = -41.1658495332
SN.node[16].zCoor = 2
SN.node[17].xCoor = -1.1672781802
SN.node[17].yCoor = 22.2647691692
SN.node[17].zCoor = 2
SN.node[18].xCoor = -8.06269035087
SN.node[18].yCoor = 9.57301733266
SN.node[18].zCoor = 2
SN.node[19].xCoor = 11.9122083044
SN.node[19].yCoor = -21.3441328401
SN.node[19].zCoor = 2
SN.node[20].xCoor = 18.86778032
SN.node[20].yCoor = -8.64736474781
SN.node[20].zCoor = 2
SN.node[21].xCoor = 53.6996018228
SN.node[21].yCoor = 39.8120996648
SN.node[21].zCoor = 2
SN.node[22].xCoor = 18.7054335451
SN.node[22].yCoor = 42.8697985229
SN.node[22].zCoor = 2
SN.node[23].xCoor = 59.8938456683
SN.node[23].yCoor = -19.6350056922
SN.node[23].zCoor = 2
SN.node[24].xCoor = 55.7714792489
SN.node[24].yCoor = -23.5510816692
SN.node[24].zCoor = 2
SN.node[25].xCoor = 7.04440811163
SN.node[25].yCoor = 22.0213145589
SN.node[25].zCoor = 2
SN.node[26].xCoor = 45.2644967353
SN.node[26].yCoor = 26.6234297792
SN.node[26].zCoor = 2
SN.node[27].xCoor = 16.36878844
SN.node[27].yCoor = -23.684038285
SN.node[27].zCoor = 2
SN.node[28].xCoor = 5.49018040243
SN.node[28].yCoor = 16.702834626
SN.node[28].zCoor = 2
SN.node[29].xCoor = 12.7381325619
SN.node[29].yCoor = 8.97515203356
SN.node[29].zCoor = 2
SN.node[30].xCoor = -19.177849982
SN.node[30].yCoor = -31.3609884852
SN.node[30].zCoor = 2
SN.node[31].xCoor = 6.10779675247
SN.node[31].yCoor = -2.8432163506
SN.node[31].zCoor = 2
SN.node[32].xCoor = -33.0891402197
SN.node[32].yCoor = 10.0432418434
SN.node[32].zCoor = 2
SN.node[33].xCoor = 13.6786614752
SN.node[33].yCoor = -38.8728787345
SN.node[33].zCoor = 2
SN.node[34].xCoor = -17.859392172
SN.node[34].yCoor = -31.4399847473
SN.node[34].zCoor = 2
SN.node[35].xCoor = -25.5393931355
SN.node[35].yCoor = 8.08474770879
SN.node[35].zCoor = 2
SN.node[36].xCoor = -0.427482145831
SN.node[36].yCoor = -25.6711297081
SN.node[36].zCoor = 2
# 14.3267208584
# 12.1399472078
# 31.0478398144
# 15.4855449572
# 13.6835335626
# 36.7844584241
# 27.2823470081
# 12.5990546684
# 40.4394547147
# 14.0602852892
# 38.1419902148
# 30.10237666
# 30.3034534761
# 38.9373196343
# 16.4858268661
# 30.7098401014
# 33.535226744
# 24.5694553966
# 12.3098848565
# 12.8341164168
# 37.4792506855
# 32.5190677231
# 44.3882136996
# 44.6354201375
# 23.8709184261
# 22.1741640501
# 37.6647972679
# 23.6695559621
# 30.6449492534
# 21.3551142734
# 18.0216379024
# 32.9638966621
# 34.8018621958
# 20.8358244385
# 26.390430049
# 15.7222272405
SN.wirelessChannel.seed = 23

[Config top4]
SN.node[0].xCoor = 0
SN.node[0].yCoor = 0
SN.node[0].zCoor = 2
SN.node[1].xCoor = 2.50410139906
SN.node[1].yCoor = 2.16339817547
SN.node[1].zCoor = 2
SN.node[2].xCoor = -6.94301161282
SN.node[2].yCoor = 3.69635078729
SN.node[2].zCoor = 2
SN.node[3].xCoor = -9.50446664701
SN.node[3].yCoor = 9.48614907068
SN.node[3].zCoor = 2
SN.node[4].xCoor = -22.3852421477
SN.node[4].yCoor = -28.248453532
SN.node[4].zCoor = 2
SN.node[5].xCoor = -15.0558930263
SN.node[5].yCoor = 9.89354291009
SN.node[5].zCoor = 2
SN.node[6].xCoor = -5.40091436124
SN.node[6].yCoor = -14.1976979212
SN.node[6].zCoor = 2
SN.node[7].xCoor = 20.6501668149
SN.node[7].yCoor = 32.3456216035
SN.node[7].zCoor = 2
SN.node[8].xCoor = 17.898608057
SN.node[8].yCoor = -12.4722823664
SN.node[8].zCoor = 2
SN.node[9].xCoor = 19.140555083
SN.node[9].yCoor = 6.87191211898
SN.node[9].zCoor = 2
SN.node[10].xCoor = -21.0411062648
SN.node[10].yCoor = -4.59552708115
SN.node[10].zCoor = 2
SN.node[11].xCoor = -26.1589324097
SN.node[11].yCoor = -4.69383206566
SN.node[11].zCoor = 2
SN.node[12].xCoor = -5.73028067862
SN.node[12].yCoor = -10.4551006967
SN.node[12].zCoor = 2
SN.node[13].xCoor = -36.6913457866
SN.node[13].yCoor = -28.2552005467
SN.node[13].zCoor = 2
SN.node[14].xCoor = 5.23442073528
SN.node[14].yCoor = 26.4707729537
SN.node[14].zCoor = 2
SN.node[15].xCoor = -14.7939451483
SN.node[15].yCoor = -29.4789039139
SN.node[15].zCoor = 2
SN.node[16].xCoor = -2.95861300075
SN.node[16].yCoor = 36.4378683071
SN.node[16].zCoor = 2
SN.node[17].xCoor = 28.6647002076
SN.node[17].yCoor = -1.37296977155
SN.node[17].zCoor = 2
SN.node[18].xCoor = -28.4669369176
SN.node[18].yCoor = 8.25780623849
SN.node[18].zCoor = 2
SN.node[19].xCoor = -3.03757590186
SN.node[19].yCoor = -35.7723711984
SN.node[19].zCoor = 2
SN.node[20].xCoor = -12.7313099347
SN.node[20].yCoor = -20.3072189263
SN.node[20].zCoor = 2
SN.node[21].xCoor = 15.1196955444
SN.node[21].yCoor = 8.40183395298
SN.node[21].zCoor = 2
SN.node[22].xCoor = -44.7613328006
SN.node[22].yCoor = 7.45151325481
SN.node[22].zCoor = 2
SN.node[23].xCoor = -5.12082880383
SN.node[23].yCoor = 43.1271222907
SN.node[23].zCoor = 2
SN.node[24].xCoor = -25.5814326489
SN.node[24].yCoor = 17.4803452867
SN.node[24].zCoor = 2
SN.node[25].xCoor = -16.5841419214
SN.node[25].yCoor = -12.2407352932
SN.node[25].zCoor = 2
SN.node[26].xCoor = 22.3097264102
SN.node[26].yCoor = 48.9594637079
SN.node[26].zCoor = 2
SN.node[27].xCoor = -14.3037361528
SN.node[27].yCoor = 1.1412583417
SN.node[27].zCoor = 2
SN.node[28].xCoor = -18.0624260273
SN.node[28].yCoor = 1.82383390981
SN.node[28].zCoor = 2
SN.node[29].xCoor = 11.0419946519
SN.node[29].yCoor = -35.1615213268
SN.node[29].zCoor = 2
SN.node[30].xCoor = -5.29069977498
SN.node[30].yCoor = -29.0866674012
SN.node[30].zCoor = 2
SN.node[31].xCoor = 5.32069792339
SN.node[31].yCoor = -3.38557631801
SN.node[31].zCoor = 2
SN.node[32].xCoor = -1.82330560669
SN.node[32].yCoor = -19.090902099
SN.node[32].zCoor = 2
SN.node[33].xCoor = 13.5242762371
SN.node[33].yCoor = -61.7838097208
SN.node[33].zCoor = 2
SN.node[34].xCoor = -43.7429555362
SN.node[34].yCoor = -35.5590729496
SN.node[34].zCoor = 2
SN.node[35].xCoor = -0.662126962019
SN.node[35].yCoor = 8.74996132994
SN.node[35].zCoor = 2
SN.node[36].xCoor = -55.5785704923
SN.node[36].yCoor = -52.9543767946
SN.node[36].zCoor = 2
# 3.30920163822
# 7.86564805966
# 13.4283993996
# 36.0426718343
# 19.1861549518
# 18.1707110388
# 35.2171307908
# 21.2413271752
# 17.2899304433
# 24.4961195816
# 29.4718698711
# 15.0675665583
# 43.6562139765
# 25.8256493357
# 34.0915632066
# 32.9830623472
# 35.9667506458
# 22.0019598299
# 39.6614730347
# 24.6916130793
# 24.6480243205
# 35.3155256774
# 33.9253792894
# 17.9548324684
# 22.8512429892
# 50.6979826851
# 9.6265356732
# 11.4869379027
# 34.1345963267
# 17.1150805263
# 37.2260900254
# 22.5089756
# 49.1336302886
# 22.5742569635
# 42.9042705994
# 41.3784930955
SN.wirelessChannel.seed = 24

[Config top5]
#positions
SN.node[0].xCoor = 0
SN.node[0].yCoor = 0
SN.node[0].zCoor = 2
SN.node[1].xCoor = -14.6021187808
SN.node[1].yCoor = 19.2404494787
SN.node[1].zCoor = 2
SN.node[2].xCoor = -22.5431643035
SN.node[2].yCoor = 18.9558580821
SN.node[2].zCoor = 2
SN.node[3].xCoor = -27.0308287812
SN.node[3].yCoor = -10.5761302677
SN.node[3].zCoor = 2
SN.node[4].xCoor = -19.4508910667
SN.node[4].yCoor = 16.6977105261
SN.node[4].zCoor = 2
SN.node[5].xCoor = 15.8050908697
SN.node[5].yCoor = 48.7930518553
SN.node[5].zCoor = 2
SN.node[6].xCoor = -19.8104654184
SN.node[6].yCoor = 18.8096558955
SN.node[6].zCoor = 2
SN.node[7].xCoor = -13.3597232508
SN.node[7].yCoor = 6.7778329642
SN.node[7].zCoor = 2
SN.node[8].xCoor = -26.7336078969
SN.node[8].yCoor = 28.121180992
SN.node[8].zCoor = 2
SN.node[9].xCoor = -26.3750465728
SN.node[9].yCoor = 47.4792359892
SN.node[9].zCoor = 2
SN.node[10].xCoor = 11.7031259044
SN.node[10].yCoor = -18.2060189819
SN.node[10].zCoor = 2
SN.node[11].xCoor = -2.32931666346
SN.node[11].yCoor = 11.5558232024
SN.node[11].zCoor = 2
SN.node[12].xCoor = 4.93485186546
SN.node[12].yCoor = -0.807431358079
SN.node[12].zCoor = 2
SN.node[13].xCoor = -34.2013137205
SN.node[13].yCoor = 14.8354654732
SN.node[13].zCoor = 2
SN.node[14].xCoor = -61.7413843739
SN.node[14].yCoor = -3.67690726563
SN.node[14].zCoor = 2
SN.node[15].xCoor = 9.66330974011
SN.node[15].yCoor = 17.8017178197
SN.node[15].zCoor = 2
SN.node[16].xCoor = -43.5750776214
SN.node[16].yCoor = 0.91675054243
SN.node[16].zCoor = 2
SN.node[17].xCoor = -41.4027601167
SN.node[17].yCoor = -7.0346681948
SN.node[17].zCoor = 2
SN.node[18].xCoor = 12.8283119307
SN.node[18].yCoor = -15.3635421792
SN.node[18].zCoor = 2
SN.node[19].xCoor = -13.1331677794
SN.node[19].yCoor = 55.648004339
SN.node[19].zCoor = 2
SN.node[20].xCoor = -41.1134830528
SN.node[20].yCoor = 52.6766953448
SN.node[20].zCoor = 2
SN.node[21].xCoor = -49.4413491124
SN.node[21].yCoor = -46.2058796949
SN.node[21].zCoor = 2
SN.node[22].xCoor = 3.92307047465
SN.node[22].yCoor = 2.12186733656
SN.node[22].zCoor = 2
SN.node[23].xCoor = -5.53286105841
SN.node[23].yCoor = -35.37894057
SN.node[23].zCoor = 2
SN.node[24].xCoor = -62.4128419051
SN.node[24].yCoor = 11.4311170483
SN.node[24].zCoor = 2
SN.node[25].xCoor = 5.38450101061
SN.node[25].yCoor = 29.4017629095
SN.node[25].zCoor = 2
SN.node[26].xCoor = -37.2572199377
SN.node[26].yCoor = 18.7082593196
SN.node[26].zCoor = 2
SN.node[27].xCoor = -55.8059898417
SN.node[27].yCoor = -49.7012377727
SN.node[27].zCoor = 2
SN.node[28].xCoor = -56.5821386653
SN.node[28].yCoor = 22.8919095849
SN.node[28].zCoor = 2
SN.node[29].xCoor = -47.5046399748
SN.node[29].yCoor = -3.19089638376
SN.node[29].zCoor = 2
SN.node[30].xCoor = 19.0713319435
SN.node[30].yCoor = -19.7980969073
SN.node[30].zCoor = 2
SN.node[31].xCoor = 18.3022533364
SN.node[31].yCoor = 35.7575846709
SN.node[31].zCoor = 2
SN.node[32].xCoor = 16.5758125644
SN.node[32].yCoor = 44.8040592086
SN.node[32].zCoor = 2
SN.node[33].xCoor = 3.15853409486
SN.node[33].yCoor = 46.2000996661
SN.node[33].zCoor = 2
SN.node[34].xCoor = -49.2524191354
SN.node[34].yCoor = 48.5237900707
SN.node[34].zCoor = 2
SN.node[35].xCoor = -39.7950385505
SN.node[35].yCoor = 51.8273881762
SN.node[35].zCoor = 2
SN.node[36].xCoor = -16.2808991187
SN.node[36].yCoor = 6.54985599183
SN.node[36].zCoor = 2
# 24.1540217983
# 29.4536723082
# 29.0261991318
# 25.6349507529
# 42.4022959986
# 5.22613220354
# 12.5243904858
# 15.0346406803
# 30.5946219519
# 45.7624725962
# 14.4801641157
# 27.9930482098
# 12.3648729505
# 45.2630370609
# 32.2271470978
# 27.7083160557
# 32.1121754229
# 49.284506341
# 37.8795674674
# 38.4961245341
# 42.0916911725
# 33.457181924
# 32.8228885855
# 41.6678027634
# 51.4682965368
# 31.0186161779
# 48.5673134046
# 44.6473919445
# 34.3885084383
# 53.0651074235
# 42.2915915371
# 45.6934372836
# 37.1695718445
# 43.6008074972
# 40.595302544
# 10.6314533625
SN.wirelessChannel.seed = 25

[Config top6]
SN.node[0].xCoor = 0
SN.node[0].yCoor = 0
SN.node[0].zCoor = 2
SN.node[1].xCoor = 29.53953178
SN.node[1].yCoor = -5.96056358064
SN.node[1].zCoor = 2
SN.node[2].xCoor = 5.4722344247
SN.node[2].yCoor = 25.697878426
SN.node[2].zCoor = 2
SN.node[3].xCoor = 7.9796636107
SN.node[3].yCoor = 26.3341795595
SN.node[3].zCoor = 2
SN.node[4].xCoor = -25.3931505112
SN.node[4].yCoor = 13.9626447759
SN.node[4].zCoor = 2
SN.node[5].xCoor = 5.49009599855
SN.node[5].yCoor = 19.4536550014
SN.node[5].zCoor = 2
SN.node[6].xCoor = -1.14015449715
SN.node[6].yCoor = -16.5563135913
SN.node[6].zCoor = 2
SN.node[7].xCoor = 41.8746659959
SN.node[7].yCoor = 33.3404248504
SN.node[7].zCoor = 2
SN.node[8].xCoor = 53.7634246568
SN.node[8].yCoor = 33.0767674757
SN.node[8].zCoor = 2
SN.node[9].xCoor = 16.5950552551
SN.node[9].yCoor = -43.6426188349
SN.node[9].zCoor = 2
SN.node[10].xCoor = 63.4153840552
SN.node[10].yCoor = 4.83873060359
SN.node[10].zCoor = 2
SN.node[11].xCoor = 40.7881387286
SN.node[11].yCoor = -35.021545681
SN.node[11].zCoor = 2
SN.node[12].xCoor = 39.6924446222
SN.node[12].yCoor = 4.28117479884
SN.node[12].zCoor = 2
SN.node[13].xCoor = -0.939681892565
SN.node[13].yCoor = 3.33306923611
SN.node[13].zCoor = 2
SN.node[14].xCoor = 14.3378781593
SN.node[14].yCoor = 37.2245052201
SN.node[14].zCoor = 2
SN.node[15].xCoor = -5.28986362586
SN.node[15].yCoor = 32.7103656568
SN.node[15].zCoor = 2
SN.node[16].xCoor = -13.4482432962
SN.node[16].yCoor = 51.9520391813
SN.node[16].zCoor = 2
SN.node[17].xCoor = 1.92057059624
SN.node[17].yCoor = 16.4555979291
SN.node[17].zCoor = 2
SN.node[18].xCoor = 11.5081837145
SN.node[18].yCoor = 63.5929567685
SN.node[18].zCoor = 2
SN.node[19].xCoor = -9.07146345114
SN.node[19].yCoor = -2.06724062923
SN.node[19].zCoor = 2
SN.node[20].xCoor = -18.0872047607
SN.node[20].yCoor = 56.3450646235
SN.node[20].zCoor = 2
SN.node[21].xCoor = -8.21693340455
SN.node[21].yCoor = 64.2970397411
SN.node[21].zCoor = 2
SN.node[22].xCoor = -22.7724191092
SN.node[22].yCoor = 62.4116080636
SN.node[22].zCoor = 2
SN.node[23].xCoor = -6.02430527154
SN.node[23].yCoor = 14.5607356155
SN.node[23].zCoor = 2
SN.node[24].xCoor = 12.2437645127
SN.node[24].yCoor = 18.5633358648
SN.node[24].zCoor = 2
SN.node[25].xCoor = -12.8847722006
SN.node[25].yCoor = 34.8096482761
SN.node[25].zCoor = 2
SN.node[26].xCoor = -24.3051813488
SN.node[26].yCoor = 23.1611743335
SN.node[26].zCoor = 2
SN.node[27].xCoor = 47.6175437301
SN.node[27].yCoor = 28.7116110713
SN.node[27].zCoor = 2
SN.node[28].xCoor = -26.9965531998
SN.node[28].yCoor = 6.04337509338
SN.node[28].zCoor = 2
SN.node[29].xCoor = -39.096745079
SN.node[29].yCoor = 36.6032832896
SN.node[29].zCoor = 2
SN.node[30].xCoor = -17.333395931
SN.node[30].yCoor = 34.9980216029
SN.node[30].zCoor = 2
SN.node[31].xCoor = 3.75168759316
SN.node[31].yCoor = -18.6542839141
SN.node[31].zCoor = 2
SN.node[32].xCoor = -13.9210180627
SN.node[32].yCoor = -3.08377751611
SN.node[32].zCoor = 2
SN.node[33].xCoor = 13.5202357503
SN.node[33].yCoor = -16.6610567835
SN.node[33].zCoor = 2
SN.node[34].xCoor = -34.836235011
SN.node[34].yCoor = 2.86342718493
SN.node[34].zCoor = 2
SN.node[35].xCoor = -33.8259473125
SN.node[35].yCoor = -17.6378095288
SN.node[35].zCoor = 2
SN.node[36].xCoor = -13.5751975053
SN.node[36].yCoor = 16.3372699214
SN.node[36].zCoor = 2
# 30.1349009618
# 26.2740614522
# 27.5166139707
# 28.9787429338
# 34.9893965015
# 32.4578660474
# 41.1913003895
# 45.9424662171
# 39.8434029758
# 35.5555638719
# 31.1620255908
# 14.4213329556
# 23.2657980942
# 14.5417593186
# 12.8451442815
# 32.3614807163
# 9.90121531594
# 38.3727722014
# 31.3435955827
# 38.6561404767
# 41.273581236
# 47.40539462
# 18.295494712
# 8.86389125782
# 22.5201743263
# 32.4403942058
# 39.7091138274
# 40.4357822758
# 26.4648260221
# 22.5265781278
# 43.741120531
# 20.5472707646
# 49.5183069938
# 14.572730561
# 32.7062803473
# 12.0541635061
SN.wirelessChannel.seed = 26

[Config top7]
SN.node[0].xCoor = 0
SN.node[0].yCoor = 0
SN.node[0].zCoor = 2
SN.node[1].xCoor = 3.96113594965
SN.node[1].yCoor = 16.2522518026
SN.node[1].zCoor = 2
SN.node[2].xCoor = -11.6233669556
SN.node[2].yCoor = -29.4904837386
SN.node[2].zCoor = 2
SN.node[3].xCoor = -22.4259222997
SN.node[3].yCoor = 23.5791658557
SN.node[3].zCoor = 2
SN.node[4].xCoor = -17.5841371351
SN.node[4].yCoor = -4.64874706509
SN.node[4].zCoor = 2
SN.node[5].xCoor = -30.5439191915
SN.node[5].yCoor = 29.720600701
SN.node[5].zCoor = 2
SN.node[6].xCoor = 13.0326575738
SN.node[6].yCoor = 37.379539519
SN.node[6].zCoor = 2
SN.node[7].xCoor = 32.0720200277
SN.node[7].yCoor = 25.6260461166
SN.node[7].zCoor = 2
SN.node[8].xCoor = -24.2958645978
SN.node[8].yCoor = -0.669451342102
SN.node[8].zCoor = 2
SN.node[9].xCoor = 31.2380352909
SN.node[9].yCoor = 44.3227866199
SN.node[9].zCoor = 2
SN.node[10].xCoor = -9.82868452135
SN.node[10].yCoor = -4.56614778289
SN.node[10].zCoor = 2
SN.node[11].xCoor = 21.6641755062
SN.node[11].yCoor = 38.6949886404
SN.node[11].zCoor = 2
SN.node[12].xCoor = 28.8300611797
SN.node[12].yCoor = -17.0394479666
SN.node[12].zCoor = 2
SN.node[13].xCoor = 14.6411524167
SN.node[13].yCoor = -9.38099939122
SN.node[13].zCoor = 2
SN.node[14].xCoor = 6.63746829527
SN.node[14].yCoor = -0.00817399809561
SN.node[14].zCoor = 2
SN.node[15].xCoor = -2.40231285025
SN.node[15].yCoor = -28.9913640848
SN.node[15].zCoor = 2
SN.node[16].xCoor = -46.5972151396
SN.node[16].yCoor = -19.0389836179
SN.node[16].zCoor = 2
SN.node[17].xCoor = 21.0963379583
SN.node[17].yCoor = -1.16219501376
SN.node[17].zCoor = 2
SN.node[18].xCoor = 11.4093417278
SN.node[18].yCoor = -9.63130926155
SN.node[18].zCoor = 2
SN.node[19].xCoor = 4.00935027966
SN.node[19].yCoor = -54.9907449503
SN.node[19].zCoor = 2
SN.node[20].xCoor = 20.3275989303
SN.node[20].yCoor = -5.86661819195
SN.node[20].zCoor = 2
SN.node[21].xCoor = -9.31720651415
SN.node[21].yCoor = -3.62994255938
SN.node[21].zCoor = 2
SN.node[22].xCoor = -55.2789459043
SN.node[22].yCoor = 31.512042636
SN.node[22].zCoor = 2
SN.node[23].xCoor = -49.4705247416
SN.node[23].yCoor = 56.6433642847
SN.node[23].zCoor = 2