# ****************************************************************************
# *  Copyright: National ICT Australia,  2007 - 2010                         *
# *  Developed at the ATP lab, Networked Systems research theme              *
# *  Author(s): Athanassios Boulis, Yuriy Tselishchev                        *
# *  This file is distributed under the terms in the attached LICENSE file.  *
# *  If you do not find this file, copies can be found by writing to:        *
# *                                                                          *
# *      NICTA, Locked Bag 9013, Alexandria, NSW 1435, Australia             *
# *      Attention:  License Inquiry.                                        *
# *                                                                          *
# ***************************************************************************/

[General]

# =============================================
# Always include the main Castalia.ini file
# =============================================
include ../Parameters/Castalia.ini

# Tempo de simulação
#sim-time-limit = 20000s
#sim-time-limit = 4000s
#sim-time-limit = 300s
sim-time-limit = 500s #18000s # 5 horas 7200s # 2 horas

SN.field_x = 200	# meters
SN.field_y = 200	# meters

# Aplicação
SN.node[*].ApplicationName = "ThroughputTest"
SN.node[*].nodeApplication.constantDataPayload = 80 # o payload maximo e 120B

# Roteamento
SN.node[*].Communication.RoutingProtocolName = "BypassRouting"

# Camada do Rádio
SN.node[*].Communication.Radio.RadioParametersFile = "../Parameters/Radio/CC2420.txt"
SN.node[*].Communication.Radio.noiseFloor = -87
SN.node[*].Communication.Radio.mode = "normal"
# Name=normal/dataRate(kbps)=250/modulationType=PSK/bitsPerSymbol=4/bandwidth(MHz)=20/noiseBandwidth(MHz)=194/noiseFloor(dBm)=-100/
# sensitivity(dBm)=-95/powerConsumed(mW)=62
SN.node[*].Communication.Radio.state = "RX"
SN.node[*].Communication.Radio.TxOutputPower = "0dBm" #potencia 0dbm###########################################################################3
SN.node[*].Communication.Radio.carrierFreq = 2405.0 # The carrier frequency (in MHz) to begin with.
#SN.node[1].Communication.Radio.carrierFreq = 2405.0 # The carrier frequency (in MHz) to begin with.
#SN.node[2].Communication.Radio.carrierFreq = 2410.0 # The carrier frequency (in MHz) to begin with.
#SN.node[3].Communication.Radio.carrierFreq = 2410.0 # The carrier frequency (in MHz) to begin with.
SN.node[*].Communication.Radio.collisionModel = 2 # Additive interference
SN.node[*].Communication.Radio.CCAthreshold = -77.0 # Threshold of the RSSI register (in dBm)
SN.node[*].Communication.Radio.symbolsForRSSI = 8
SN.node[*].Communication.Radio.carrierSenseInterruptEnabled = false
SN.node[*].Communication.Radio.bufferSize = 16
SN.node[*].Communication.Radio.maxPhyFrameSize = 1024
SN.node[*].Communication.Radio.phyFrameOverhead = 6 # in bytes (802.15.4. = 6 bytes)

# Camada do canal wireless
SN.wirelessChannel.onlyStaticNodes = true
# bidirectionalSigma: how variable is the average fade for link B->A if we know the fade of link A->B. Standard of a gaussian random variable
SN.wirelessChannel.bidirectionalSigma = 1.0
# temporalModelParametersFile: the filename that contains all parameters for the temporal channel variation model
SN.wirelessChannel.temporalModelParametersFile = ""
#SN.wirelessChannel.temporalModelParametersFile = ""
# Threshold in dBm above which, wireless channel module is delivering signal messages to radio modules of individual nodes
SN.wirelessChannel.signalDeliveryThreshold = -94
SN.wirelessChannel.meanTimeChange = 30

# Configuração do canal wireless para o Ambiente Padrão descrito na
# documentação
[Config ambPadrao]
SN.wirelessChannel.pathLossExponent = 2.4 # How fast is the signal strength fading
SN.wirelessChannel.PLd0 = 55 # Path loss at reference distance d0 (in dBm)
SN.wirelessChannel.d0 = 1.0 # Reference distance d0 (in meters)
# SIGMA: how variable is the average fade for nodes at the same distance from each other. Standard of a gaussian random variable.
SN.wirelessChannel.sigma = 0

# Configuração do canal wireless para o Ambiente 3
[Config amb3]
SN.wirelessChannel.pathLossExponent = 1.69
SN.wirelessChannel.PLd0 = 80.48
SN.wirelessChannel.d0 = 15
SN.wirelessChannel.sigma = 6.62
SN.wirelessChannel.K = 12.3
SN.wirelessChannel.K_sigma = 5.4

#Numero de nos
SN.numNodes = 53

[Config top1]
SN.node[0].xCoor = -1.15154473916
SN.node[0].yCoor = 17.4177740617
SN.node[0].zCoor = 2
SN.node[1].xCoor = 23.3402876015
SN.node[1].yCoor = 41.9096064023
SN.node[1].zCoor = 2
SN.node[2].xCoor = -25.6433770798
SN.node[2].yCoor = 41.9096064023
SN.node[2].zCoor = 2
SN.node[3].xCoor = 23.3402876015
SN.node[3].yCoor = -7.07405827891
SN.node[3].zCoor = 2
SN.node[4].xCoor = -25.6433770798
SN.node[4].yCoor = -7.07405827891
SN.node[4].zCoor = 2
SN.node[5].xCoor = 44.6829287388
SN.node[5].yCoor = -24.8463553684
SN.node[5].zCoor = 2
SN.node[6].xCoor = -23.762323216
SN.node[6].yCoor = -5.88172417568
SN.node[6].zCoor = 2
SN.node[7].xCoor = 16.3797916446
SN.node[7].yCoor = -7.789352349
SN.node[7].zCoor = 2
SN.node[8].xCoor = 3.21290004322
SN.node[8].yCoor = 9.10196995489
SN.node[8].zCoor = 2
SN.node[9].xCoor = 48.8739648639
SN.node[9].yCoor = -20.9326515642
SN.node[9].zCoor = 2
SN.node[10].xCoor = 44.1955129387
SN.node[10].yCoor = -19.6051541349
SN.node[10].zCoor = 2
SN.node[11].xCoor = 38.1883340963
SN.node[11].yCoor = 30.9303161875
SN.node[11].zCoor = 2
SN.node[12].xCoor = -7.33408054937
SN.node[12].yCoor = 9.57170126896
SN.node[12].zCoor = 2
SN.node[13].xCoor = 43.8996629056
SN.node[13].yCoor = -4.6671959446
SN.node[13].zCoor = 2
SN.node[14].xCoor = 36.3353616347
SN.node[14].yCoor = -5.42127055293
SN.node[14].zCoor = 2
SN.node[15].xCoor = 33.2924950463
SN.node[15].yCoor = 3.67028626297
SN.node[15].zCoor = 2
SN.node[16].xCoor = 42.1541228302
SN.node[16].yCoor = 7.77270797108
SN.node[16].zCoor = 2
SN.node[17].xCoor = 41.1345653902
SN.node[17].yCoor = -13.6294306736
SN.node[17].zCoor = 2
SN.node[18].xCoor = 16.3069541129
SN.node[18].yCoor = 23.8120042445
SN.node[18].zCoor = 2
SN.node[19].xCoor = 4.42514516861
SN.node[19].yCoor = 56.7838693932
SN.node[19].zCoor = 2
SN.node[20].xCoor = 42.7102291904
SN.node[20].yCoor = 9.91964185054
SN.node[20].zCoor = 2
SN.node[21].xCoor = 39.029318173
SN.node[21].yCoor = 11.1260491156
SN.node[21].zCoor = 2
SN.node[22].xCoor = 10.3391910706
SN.node[22].yCoor = 11.8230624193
SN.node[22].zCoor = 2
SN.node[23].xCoor = 48.8698555093
SN.node[23].yCoor = 55.7735594652
SN.node[23].zCoor = 2
SN.node[24].xCoor = -22.2844809101
SN.node[24].yCoor = 3.77370494112
SN.node[24].zCoor = 2
SN.node[25].xCoor = 36.2946571262
SN.node[25].yCoor = -7.52754373015
SN.node[25].zCoor = 2
SN.node[26].xCoor = 9.95691272934
SN.node[26].yCoor = 3.73550190801
SN.node[26].zCoor = 2
SN.node[27].xCoor = 45.3675053246
SN.node[27].yCoor = -3.22590454984
SN.node[27].zCoor = 2
SN.node[28].xCoor = 33.0369557745
SN.node[28].yCoor = 49.269294101
SN.node[28].zCoor = 2
SN.node[29].xCoor = 5.41549737659
SN.node[29].yCoor = 31.287909436
SN.node[29].zCoor = 2
SN.node[30].xCoor = 39.2255570023
SN.node[30].yCoor = 38.1265386258
SN.node[30].zCoor = 2
SN.node[31].xCoor = -0.171493500588
SN.node[31].yCoor = 13.8118504287
SN.node[31].zCoor = 2
SN.node[32].xCoor = 23.6351833098
SN.node[32].yCoor = 42.2615148167
SN.node[32].zCoor = 2
SN.node[33].xCoor = 19.357344807
SN.node[33].yCoor = 42.1662889944
SN.node[33].zCoor = 2
SN.node[34].xCoor = -12.6700342466
SN.node[34].yCoor = 55.3193426409
SN.node[34].zCoor = 2
SN.node[35].xCoor = 29.5013058212
SN.node[35].yCoor = 1.12324668681
SN.node[35].zCoor = 2
SN.node[36].xCoor = -27.8775944252
SN.node[36].yCoor = 42.8581965609
SN.node[36].zCoor = 2
SN.node[37].xCoor = 3.48325701789
SN.node[37].yCoor = -16.6484336977
SN.node[37].zCoor = 2
SN.node[38].xCoor = 28.6361190731
SN.node[38].yCoor = -15.1649896021
SN.node[38].zCoor = 2
SN.node[39].xCoor = 30.0551867989
SN.node[39].yCoor = 17.5528522778
SN.node[39].zCoor = 2
SN.node[40].xCoor = -12.4722702901
SN.node[40].yCoor = -9.98664477183
SN.node[40].zCoor = 2
SN.node[41].xCoor = -63.2379130976
SN.node[41].yCoor = 28.3076602317
SN.node[41].zCoor = 2
SN.node[42].xCoor = -5.75052650318
SN.node[42].yCoor = -7.64783935504
SN.node[42].zCoor = 2
SN.node[43].xCoor = -50.6379447416
SN.node[43].yCoor = 27.2844620289
SN.node[43].zCoor = 2
SN.node[44].xCoor = -9.21664698556
SN.node[44].yCoor = 54.1912726704
SN.node[44].zCoor = 2
SN.node[45].xCoor = -28.0372365306
SN.node[45].yCoor = -3.89802985861
SN.node[45].zCoor = 2
SN.node[46].xCoor = -45.3811952806
SN.node[46].yCoor = 43.2693993463
SN.node[46].zCoor = 2
SN.node[47].xCoor = -30.8888874766
SN.node[47].yCoor = 58.3275657224
SN.node[47].zCoor = 2
SN.node[48].xCoor = -20.7912479907
SN.node[48].yCoor = 8.82056698808
SN.node[48].zCoor = 2
SN.node[49].xCoor = -35.8863085394
SN.node[49].yCoor = 2.84371300488
SN.node[49].zCoor = 2
SN.node[50].xCoor = 7.293713671
SN.node[50].yCoor = 61.1766524312
SN.node[50].zCoor = 2
SN.node[51].xCoor = -38.2129986816
SN.node[51].yCoor = 53.1888350273
SN.node[51].zCoor = 2
SN.node[52].xCoor = -19.9776142988
SN.node[52].yCoor = -3.84436937332
SN.node[52].zCoor = 2
# 14.307229696
# 23.099369015
# 19.675289333
# 36.1650243273
# 37.1302549241
# 34.9855049928
# 5.44902733729
# 19.7854569193
# 39.6179484587
# 34.7569895669
# 48.3066539238
# 26.1898950134
# 33.1121433396
# 25.5158738245
# 25.5988376014
# 35.3375071435
# 40.7920442864
# 6.33503176116
# 40.5382668411
# 28.8339361683
# 24.9651099801
# 7.39947132032
# 51.0603824966
# 39.7064934198
# 33.0072899338
# 14.755690769
# 36.9001044142
# 36.4567173251
# 16.9331977854
# 35.3643804132
# 12.2306580505
# 29.0728235097
# 27.5360948449
# 46.6692412806
# 22.8089289586
# 48.2069342564
# 33.3856364067
# 35.0603814421
# 18.234670531
# 35.3891852815
# 37.798858028
# 38.6975116647
# 25.1582856193
# 32.9123026714
# 29.6134331239
# 26.5654525651
# 33.1531039542
# 17.446411396
# 25.008450062
# 48.4022233053
# 30.3535364194
# 29.9736973189
SN.wirelessChannel.seed = 21

[Config top2]
SN.node[0].xCoor = 0
SN.node[0].yCoor = 0
SN.node[0].zCoor = 2
SN.node[1].xCoor = -1.0447744266
SN.node[1].yCoor = -23.529448284
SN.node[1].zCoor = 2
SN.node[2].xCoor = 24.6835787272
SN.node[2].yCoor = -19.0161591622
SN.node[2].zCoor = 2
SN.node[3].xCoor = 0.0283650587953
SN.node[3].yCoor = -29.0571018721
SN.node[3].zCoor = 2
SN.node[4].xCoor = 26.3412699867
SN.node[4].yCoor = 19.9878061865
SN.node[4].zCoor = 2
SN.node[5].xCoor = -40.7475620272
SN.node[5].yCoor = -61.691234735
SN.node[5].zCoor = 2
SN.node[6].xCoor = 1.52334302875
SN.node[6].yCoor = -16.5628076908
SN.node[6].zCoor = 2
SN.node[7].xCoor = -24.0246690505
SN.node[7].yCoor = -4.63487080274
SN.node[7].zCoor = 2
SN.node[8].xCoor = 25.15394896
SN.node[8].yCoor = -52.2026917183
SN.node[8].zCoor = 2
SN.node[9].xCoor = -2.41373081304
SN.node[9].yCoor = -8.41613533146
SN.node[9].zCoor = 2
SN.node[10].xCoor = 1.27266130292
SN.node[10].yCoor = -14.2742888832
SN.node[10].zCoor = 2
SN.node[11].xCoor = -12.3179267201
SN.node[11].yCoor = -41.5516196248
SN.node[11].zCoor = 2
SN.node[12].xCoor = -15.7478761067
SN.node[12].yCoor = -27.8593114708
SN.node[12].zCoor = 2
SN.node[13].xCoor = -7.79564573844
SN.node[13].yCoor = -47.8852767533
SN.node[13].zCoor = 2
SN.node[14].xCoor = -18.9083487377
SN.node[14].yCoor = -39.6310095142
SN.node[14].zCoor = 2
SN.node[15].xCoor = -32.5834341714
SN.node[15].yCoor = -37.6161617478
SN.node[15].zCoor = 2
SN.node[16].xCoor = -38.8344343854
SN.node[16].yCoor = -43.6668617021
SN.node[16].zCoor = 2
SN.node[17].xCoor = 30.4432454533
SN.node[17].yCoor = -15.1650046041
SN.node[17].zCoor = 2
SN.node[18].xCoor = 53.4875094698
SN.node[18].yCoor = 13.3146740261
SN.node[18].zCoor = 2
SN.node[19].xCoor = 22.3614255309
SN.node[19].yCoor = 15.9932421889
SN.node[19].zCoor = 2
SN.node[20].xCoor = 56.7845745185
SN.node[20].yCoor = 4.12955957599
SN.node[20].zCoor = 2
SN.node[21].xCoor = 5.87071118407
SN.node[21].yCoor = -26.1990276613
SN.node[21].zCoor = 2
SN.node[22].xCoor = 50.8009330925
SN.node[22].yCoor = 16.3010286032
SN.node[22].zCoor = 2
SN.node[23].xCoor = 16.7075759626
SN.node[23].yCoor = -55.79566867
SN.node[23].zCoor = 2
SN.node[24].xCoor = 16.6730258809
SN.node[24].yCoor = -6.03157715817
SN.node[24].zCoor = 2
SN.node[25].xCoor = 30.3107827002
SN.node[25].yCoor = 8.92360541011
SN.node[25].zCoor = 2
SN.node[26].xCoor = 32.6050748664
SN.node[26].yCoor = 9.87089776783
SN.node[26].zCoor = 2
SN.node[27].xCoor = 14.5887839978
SN.node[27].yCoor = -7.9385137049
SN.node[27].zCoor = 2
SN.node[28].xCoor = 19.9480969838
SN.node[28].yCoor = 4.92257735571
SN.node[28].zCoor = 2
SN.node[29].xCoor = 6.4931156965
SN.node[29].yCoor = -40.3739219933
SN.node[29].zCoor = 2
SN.node[30].xCoor = 33.8399802639
SN.node[30].yCoor = -32.9796974183
SN.node[30].zCoor = 2
SN.node[31].xCoor = 1.48403045928
SN.node[31].yCoor = -47.6215423156
SN.node[31].zCoor = 2
SN.node[32].xCoor = -35.0227219497
SN.node[32].yCoor = -30.2260342621
SN.node[32].zCoor = 2
SN.node[33].xCoor = -25.7938833068
SN.node[33].yCoor = -54.9066539601
SN.node[33].zCoor = 2
SN.node[34].xCoor = 32.5792125038
SN.node[34].yCoor = -10.0860963537
SN.node[34].zCoor = 2
SN.node[35].xCoor = 26.2413293314
SN.node[35].yCoor = -56.9989489069
SN.node[35].zCoor = 2
SN.node[36].xCoor = 3.3885743965
SN.node[36].yCoor = 7.48852313615
SN.node[36].zCoor = 2
SN.node[37].xCoor = 30.0328908342
SN.node[37].yCoor = -36.7242207522
SN.node[37].zCoor = 2
SN.node[38].xCoor = -27.4646844897
SN.node[38].yCoor = -8.79086566162
SN.node[38].zCoor = 2
SN.node[39].xCoor = -38.0846668195
SN.node[39].yCoor = -60.5865622257
SN.node[39].zCoor = 2
SN.node[40].xCoor = 23.9157829322
SN.node[40].yCoor = -52.5933132503
SN.node[40].zCoor = 2
SN.node[41].xCoor = 62.0701509546
SN.node[41].yCoor = 36.4604888416
SN.node[41].zCoor = 2
SN.node[42].xCoor = -5.95176369777
SN.node[42].yCoor = -9.50865983573
SN.node[42].zCoor = 2
SN.node[43].xCoor = 19.7916285378
SN.node[43].yCoor = 15.8543831522
SN.node[43].zCoor = 2
SN.node[44].xCoor = 60.7188174884
SN.node[44].yCoor = -17.8476445224
SN.node[44].zCoor = 2
SN.node[45].xCoor = 8.48059555145
SN.node[45].yCoor = 43.4338842177
SN.node[45].zCoor = 2
SN.node[46].xCoor = -1.72205887648
SN.node[46].yCoor = 36.3698760745
SN.node[46].zCoor = 2
SN.node[47].xCoor = 36.8685422692
SN.node[47].yCoor = 7.85630520407
SN.node[47].zCoor = 2
SN.node[48].xCoor = -0.634168658907
SN.node[48].yCoor = -1.2663054976
SN.node[48].zCoor = 2
SN.node[49].xCoor = 13.441600556
SN.node[49].yCoor = 26.9321873016
SN.node[49].zCoor = 2
SN.node[50].xCoor = 33.1344918114
SN.node[50].yCoor = 1.57699552446
SN.node[50].zCoor = 2
SN.node[51].xCoor = 6.19615178986
SN.node[51].yCoor = 31.9916993209
SN.node[51].zCoor = 2
SN.node[52].xCoor = 27.9585944281
SN.node[52].yCoor = 51.8330967861
SN.node[52].zCoor = 2
# 23.5526323402
# 31.1591618639
# 29.0571157168
# 33.0662199331
# 55.0693498091
# 7.42491134085
# 29.7503044542
# 38.8397733789
# 15.1751859952
# 9.54088485908
# 21.257530959
# 15.3273909793
# 25.2741101504
# 24.049273611
# 34.5416061397
# 42.820250104
# 6.92857505029
# 43.3006836075
# 35.0863303643
# 39.5752223835
# 20.137467196
# 43.9251630697
# 37.6344116432
# 15.2567469247
# 28.5008047064
# 29.9534999485
# 14.9872982724
# 24.402620626
# 13.0331660952
# 34.0383912458
# 18.6214234348
# 35.0705731834
# 36.5374855978
# 37.675678093
# 38.3127434632
# 36.6997781197
# 30.9686337918
# 34.1553524885
# 49.4642301986
# 33.5344893907
# 39.3433883781
# 43.7365011443
# 7.744868565
# 51.1208088999
# 29.4740948347
# 32.4949633128
# 16.0622781011
# 34.3425618381
# 14.6501160573
# 19.6241130244
# 23.4503568746
# 31.8863336199
SN.wirelessChannel.seed = 22

[Config top3]
SN.node[0].xCoor = 0
SN.node[0].yCoor = 0
SN.node[0].zCoor = 2
SN.node[1].xCoor = 17.387911205
SN.node[1].yCoor = 5.21397950471
SN.node[1].zCoor = 2
SN.node[2].xCoor = -12.6408022374
SN.node[2].yCoor = -8.44879237783
SN.node[2].zCoor = 2
SN.node[3].xCoor = 18.1421773409
SN.node[3].yCoor = 18.6344563967
SN.node[3].zCoor = 2
SN.node[4].xCoor = -13.6991757567
SN.node[4].yCoor = -25.2186528466
SN.node[4].zCoor = 2
SN.node[5].xCoor = 47.9586932565
SN.node[5].yCoor = 14.8455640333
SN.node[5].zCoor = 2
SN.node[6].xCoor = -14.2533570641
SN.node[6].yCoor = 38.5035856249
SN.node[6].zCoor = 2
SN.node[7].xCoor = -5.96985974098
SN.node[7].yCoor = -3.18322373396
SN.node[7].zCoor = 2
SN.node[8].xCoor = -19.696230673
SN.node[8].yCoor = 43.2187591528
SN.node[8].zCoor = 2
SN.node[9].xCoor = -0.423185453958
SN.node[9].yCoor = -23.1335261493
SN.node[9].zCoor = 2
SN.node[10].xCoor = 32.4301416929
SN.node[10].yCoor = -12.4423225078
SN.node[10].zCoor = 2
SN.node[11].xCoor = 31.7557391656
SN.node[11].yCoor = 21.4198392223
SN.node[11].zCoor = 2
SN.node[12].xCoor = 55.7248952987
SN.node[12].yCoor = -10.8963808051
SN.node[12].zCoor = 2
SN.node[13].xCoor = -14.0985694799
SN.node[13].yCoor = 42.1494575433
SN.node[13].zCoor = 2
SN.node[14].xCoor = 34.8774437337
SN.node[14].yCoor = 11.1893145584
SN.node[14].zCoor = 2
SN.node[15].xCoor = 28.376542551
SN.node[15].yCoor = -26.9711593744
SN.node[15].zCoor = 2
SN.node[16].xCoor = -1.10407199383
SN.node[16].yCoor = -8.97699302485
SN.node[16].zCoor = 2
SN.node[17].xCoor = 22.5911537401
SN.node[17].yCoor = -30.9824779969
SN.node[17].zCoor = 2
SN.node[18].xCoor = 18.5942993715
SN.node[18].yCoor = 0.366185034597
SN.node[18].zCoor = 2
SN.node[19].xCoor = -36.9256959064
SN.node[19].yCoor = 11.3784216003
SN.node[19].zCoor = 2
SN.node[20].xCoor = -50.4816684494
SN.node[20].yCoor = -9.42501201163
SN.node[20].zCoor = 2
SN.node[21].xCoor = 13.3360772425
SN.node[21].yCoor = 19.792610832
SN.node[21].zCoor = 2
SN.node[22].xCoor = 5.26749469059
SN.node[22].yCoor = -27.2007200474
SN.node[22].zCoor = 2
SN.node[23].xCoor = 14.3395509693
SN.node[23].yCoor = 10.1402850499
SN.node[23].zCoor = 2
SN.node[24].xCoor = -25.4667003196
SN.node[24].yCoor = 17.8714573733
SN.node[24].zCoor = 2
SN.node[25].xCoor = -39.0409176844
SN.node[25].yCoor = -44.4063929676
SN.node[25].zCoor = 2
SN.node[26].xCoor = -1.49316160676
SN.node[26].yCoor = 28.5494821992
SN.node[26].zCoor = 2
SN.node[27].xCoor = -42.5632780451
SN.node[27].yCoor = -26.0210532192
SN.node[27].zCoor = 2
SN.node[28].xCoor = -38.399352868
SN.node[28].yCoor = -14.8272655339
SN.node[28].zCoor = 2
SN.node[29].xCoor = 14.5727582185
SN.node[29].yCoor = 49.4377797365
SN.node[29].zCoor = 2
SN.node[30].xCoor = 1.56149365012
SN.node[30].yCoor = 10.0084406641
SN.node[30].zCoor = 2
SN.node[31].xCoor = 8.56776126474
SN.node[31].yCoor = -19.1128572374
SN.node[31].zCoor = 2
SN.node[32].xCoor = 18.5338077064
SN.node[32].yCoor = 46.8922832626
SN.node[32].zCoor = 2
SN.node[33].xCoor = -0.571350019062
SN.node[33].yCoor = 29.7444202904
SN.node[33].zCoor = 2
SN.node[34].xCoor = 41.6961126685
SN.node[34].yCoor = 14.4881464219
SN.node[34].zCoor = 2
SN.node[35].xCoor = 9.84829848921
SN.node[35].yCoor = 45.8995762793
SN.node[35].zCoor = 2
SN.node[36].xCoor = -8.96989595276
SN.node[36].yCoor = -11.894718685
SN.node[36].zCoor = 2
SN.node[37].xCoor = 2.42162295851
SN.node[37].yCoor = 23.4187325352
SN.node[37].zCoor = 2
SN.node[38].xCoor = 7.04434282429
SN.node[38].yCoor = 28.193284112
SN.node[38].zCoor = 2
SN.node[39].xCoor = 12.7692049005
SN.node[39].yCoor = -20.8391018399
SN.node[39].zCoor = 2
SN.node[40].xCoor = -5.54534451049
SN.node[40].yCoor = -14.9502702704
SN.node[40].zCoor = 2
SN.node[41].xCoor = 22.1017064212
SN.node[41].yCoor = 8.18128161023
SN.node[41].zCoor = 2
SN.node[42].xCoor = -49.9902567782
SN.node[42].yCoor = -40.5168464793
SN.node[42].zCoor = 2
SN.node[43].xCoor = 15.3857388729
SN.node[43].yCoor = -2.01630914348
SN.node[43].zCoor = 2
SN.node[44].xCoor = -22.0963233477
SN.node[44].yCoor = -38.5020311154
SN.node[44].zCoor = 2
SN.node[45].xCoor = -28.0508592424
SN.node[45].yCoor = -50.5262246241
SN.node[45].zCoor = 2
SN.node[46].xCoor = -50.6159521946
SN.node[46].yCoor = 14.1536849834
SN.node[46].zCoor = 2
SN.node[47].xCoor = -7.85217521656
SN.node[47].yCoor = -58.8258669512
SN.node[47].zCoor = 2
SN.node[48].xCoor = -36.3543480565
SN.node[48].yCoor = -63.1272240832
SN.node[48].zCoor = 2
SN.node[49].xCoor = -49.644359699
SN.node[49].yCoor = -51.8074945343
SN.node[49].zCoor = 2
SN.node[50].xCoor = -23.312300318
SN.node[50].yCoor = 6.07507140107
SN.node[50].zCoor = 2
SN.node[51].xCoor = 0.347098134562
SN.node[51].yCoor = -34.1755470859
SN.node[51].zCoor = 2
SN.node[52].xCoor = -45.9276396552
SN.node[52].yCoor = -49.5250673386
SN.node[52].zCoor = 2
# 18.1528245281
# 15.2043406253
# 26.0073367315
# 28.6992659803
# 32.052147132
# 45.9278535675
# 24.8213312656
# 53.0998762233
# 33.4785937727
# 23.1951223064
# 21.6578939302
# 41.5844689603
# 48.5348122883
# 18.482109649
# 34.0093102477
# 23.309593389
# 41.8217372856
# 32.4551290138
# 31.3508289308
# 37.853456387
# 38.3715405317
# 25.9295563052
# 32.7642069761
# 29.2789892
# 44.6084648445
# 38.6411983937
# 34.7007047413
# 26.5365380257
# 31.0094418145
# 18.6902974581
# 38.942638968
# 28.2605405738
# 21.7629824236
# 23.9160982568
# 28.4986874894
# 40.8300753055
# 16.4324413359
# 14.6469491106
# 39.8375530462
# 41.0978412665
# 48.9618094685
# 39.383718592
# 37.2059271129
# 15.7149682118
# 29.0937108005
# 53.9724871464
# 34.1120543971
# 44.1623890333
# 44.7104322383
# 32.7369720824
# 16.6590445296
# 40.3667644321
SN.wirelessChannel.seed = 23

[Config top4]
SN.node[0].xCoor = 0
SN.node[0].yCoor = 0
SN.node[0].zCoor = 2
SN.node[1].xCoor = -1.02401927666
SN.node[1].yCoor = 2.09405137925
SN.node[1].zCoor = 2
SN.node[2].xCoor = 9.78455110909
SN.node[2].yCoor = -0.853386528915
SN.node[2].zCoor = 2
SN.node[3].xCoor = -21.3834365219
SN.node[3].yCoor = 27.9180512818
SN.node[3].zCoor = 2
SN.node[4].xCoor = 24.8696412692
SN.node[4].yCoor = 4.76635311982
SN.node[4].zCoor = 2
SN.node[5].xCoor = -16.984504942
SN.node[5].yCoor = 14.4521455556
SN.node[5].zCoor = 2
SN.node[6].xCoor = -32.9888941121
SN.node[6].yCoor = -20.6007047863
SN.node[6].zCoor = 2
SN.node[7].xCoor = 20.9192973701
SN.node[7].yCoor = 37.920168203
SN.node[7].zCoor = 2
SN.node[8].xCoor = -28.9241342047
SN.node[8].yCoor = -9.46475610393
SN.node[8].zCoor = 2
SN.node[9].xCoor = 8.37378924255
SN.node[9].yCoor = 21.3322024263
SN.node[9].zCoor = 2
SN.node[10].xCoor = 37.4642662128
SN.node[10].yCoor = -33.1204507041
SN.node[10].zCoor = 2
SN.node[11].xCoor = 16.1865919537
SN.node[11].yCoor = -24.5655152083
SN.node[11].zCoor = 2
SN.node[12].xCoor = 2.98416329774
SN.node[12].yCoor = -37.1869196314
SN.node[12].zCoor = 2
SN.node[13].xCoor = -34.4979023579
SN.node[13].yCoor = 3.73134851705
SN.node[13].zCoor = 2
SN.node[14].xCoor = -5.67735088464
SN.node[14].yCoor = -19.620036579
SN.node[14].zCoor = 2
SN.node[15].xCoor = 35.8018024889
SN.node[15].yCoor = -1.18049879519
SN.node[15].zCoor = 2
SN.node[16].xCoor = -38.7957409809
SN.node[16].yCoor = 4.87130639073
SN.node[16].zCoor = 2
SN.node[17].xCoor = 14.9890206748
SN.node[17].yCoor = -11.4381698364
SN.node[17].zCoor = 2
SN.node[18].xCoor = 25.3860583012
SN.node[18].yCoor = -13.3048346866
SN.node[18].zCoor = 2
SN.node[19].xCoor = -6.71775433416
SN.node[19].yCoor = 20.3664858182
SN.node[19].zCoor = 2
SN.node[20].xCoor = 6.89534094017
SN.node[20].yCoor = 35.3211550537
SN.node[20].zCoor = 2
SN.node[21].xCoor = 28.5140283607
SN.node[21].yCoor = -18.8953539317
SN.node[21].zCoor = 2
SN.node[22].xCoor = 7.5694280195
SN.node[22].yCoor = 25.787265542
SN.node[22].zCoor = 2
SN.node[23].xCoor = 47.0924634281
SN.node[23].yCoor = 32.726909005
SN.node[23].zCoor = 2
SN.node[24].xCoor = 42.220844389
SN.node[24].yCoor = -27.2111541801
SN.node[24].zCoor = 2
SN.node[25].xCoor = -14.7375078513
SN.node[25].yCoor = -8.46024344561
SN.node[25].zCoor = 2
SN.node[26].xCoor = 2.91882339233
SN.node[26].yCoor = 8.3039000594
SN.node[26].zCoor = 2
SN.node[27].xCoor = 26.4526337125
SN.node[27].yCoor = 8.31294001273
SN.node[27].zCoor = 2
SN.node[28].xCoor = 29.212623472
SN.node[28].yCoor = -21.4775151874
SN.node[28].zCoor = 2
SN.node[29].xCoor = -8.10751876322
SN.node[29].yCoor = -3.29943458079
SN.node[29].zCoor = 2
SN.node[30].xCoor = -19.2544246655
SN.node[30].yCoor = -3.71149365326
SN.node[30].zCoor = 2
SN.node[31].xCoor = 1.24211369297
SN.node[31].yCoor = 24.4793833499
SN.node[31].zCoor = 2
SN.node[32].xCoor = 15.0691104245
SN.node[32].yCoor = 34.3107652159
SN.node[32].zCoor = 2
SN.node[33].xCoor = 10.8480658441
SN.node[33].yCoor = -3.46894921515
SN.node[33].zCoor = 2
SN.node[34].xCoor = -27.5192290333
SN.node[34].yCoor = 28.7164108034
SN.node[34].zCoor = 2
SN.node[35].xCoor = -25.3933853987
SN.node[35].yCoor = 38.0986657199
SN.node[35].zCoor = 2
SN.node[36].xCoor = -10.6084178025
SN.node[36].yCoor = 50.5370163937
SN.node[36].zCoor = 2
SN.node[37].xCoor = -27.1045881596
SN.node[37].yCoor = 57.8415740033
SN.node[37].zCoor = 2
SN.node[38].xCoor = 17.1546466914
SN.node[38].yCoor = 59.0187557124
SN.node[38].zCoor = 2
SN.node[39].xCoor = 11.5031883437
SN.node[39].yCoor = 44.587911772
SN.node[39].zCoor = 2
SN.node[40].xCoor = 4.89423230132
SN.node[40].yCoor = 61.0639534918
SN.node[40].zCoor = 2
SN.node[41].xCoor = 3.43143904363
SN.node[41].yCoor = -21.195741654
SN.node[41].zCoor = 2
SN.node[42].xCoor = 57.8878781196
SN.node[42].yCoor = -19.9235510952
SN.node[42].zCoor = 2
SN.node[43].xCoor = 38.9412331148
SN.node[43].yCoor = 21.6565220302
SN.node[43].zCoor = 2
SN.node[44].xCoor = 63.9316518418
SN.node[44].yCoor = 34.1097149123
SN.node[44].zCoor = 2
SN.node[45].xCoor = 28.046371668
SN.node[45].yCoor = -24.8619170796
SN.node[45].zCoor = 2
SN.node[46].xCoor = 31.2701524897
SN.node[46].yCoor = 5.15543599047
SN.node[46].zCoor = 2
SN.node[47].xCoor = -14.7926169785
SN.node[47].yCoor = -26.9341709216
SN.node[47].zCoor = 2
SN.node[48].xCoor = 30.1033676629
SN.node[48].yCoor = -22.9594741117
SN.node[48].zCoor = 2
SN.node[49].xCoor = 46.9765528862
SN.node[49].yCoor = -3.10803555404
SN.node[49].zCoor = 2
SN.node[50].xCoor = 38.2170466784
SN.node[50].yCoor = 20.0528487546
SN.node[50].zCoor = 2
SN.node[51].xCoor = -5.04766829675
SN.node[51].yCoor = -31.4133514312
SN.node[51].zCoor = 2
SN.node[52].xCoor = -13.4248523951
SN.node[52].yCoor = -7.00313874819
SN.node[52].zCoor = 2
# 2.33102266353
# 9.82169582985
# 35.1663041114
# 25.3222664649
# 20.185628411
# 39.2021068395
# 42.0121386284
# 30.199709327
# 21.4108678169
# 52.1671283175
# 31.7322805603
# 39.4849365086
# 33.5139014508
# 22.2070959586
# 36.971121535
# 37.8736861937
# 11.7950897041
# 19.9611018706
# 26.8813888661
# 36.28973676
# 26.0058821401
# 26.7325852297
# 50.1947862805
# 41.7952752987
# 25.6748057015
# 11.4452660407
# 19.0222637964
# 28.3338080508
# 33.9231693082
# 31.7011167671
# 22.8853656224
# 37.0088498919
# 44.9890380533
# 6.18751385196
# 10.9418737122
# 25.0543132242
# 30.4655344304
# 49.5220927853
# 36.8702365577
# 42.2985426712
# 33.6693759923
# 41.2285742521
# 21.98380092
# 48.8556399125
# 29.7980873721
# 6.4123263613
# 50.7741859
# 28.2154813469
# 23.4674570039
# 20.2935994824
# 46.9469533949
# 40.0623162565
SN.wirelessChannel.seed = 24

[Config top5]
SN.node[0].xCoor = 0
SN.node[0].yCoor = 0
SN.node[0].zCoor = 2
SN.node[1].xCoor = -22.620691054
SN.node[1].yCoor = 16.0466280478
SN.node[1].zCoor = 2
SN.node[2].xCoor = -29.4429636957
SN.node[2].yCoor = -21.3553204367
SN.node[2].zCoor = 2
SN.node[3].xCoor = 28.5804133163
SN.node[3].yCoor = 27.5402522078
SN.node[3].zCoor = 2
SN.node[4].xCoor = -21.8548129305
SN.node[4].yCoor = 3.08432529744
SN.node[4].zCoor = 2
SN.node[5].xCoor = -56.0860232817
SN.node[5].yCoor = 11.5503045153
SN.node[5].zCoor = 2
SN.node[6].xCoor = 7.63220206184
SN.node[6].yCoor = 46.1750208139
SN.node[6].zCoor = 2
SN.node[7].xCoor = 3.01734407592
SN.node[7].yCoor = 31.3982576029
SN.node[7].zCoor = 2
SN.node[8].xCoor = -0.463916132978
SN.node[8].yCoor = 0.345249660034
SN.node[8].zCoor = 2
SN.node[9].xCoor = 16.2759580904
SN.node[9].yCoor = 13.4804270231
SN.node[9].zCoor = 2
SN.node[10].xCoor = 0.417062987838
SN.node[10].yCoor = 47.4624730005
SN.node[10].zCoor = 2
SN.node[11].xCoor = 6.80194181169
SN.node[11].yCoor = -18.7009193488
SN.node[11].zCoor = 2
SN.node[12].xCoor = 15.9811647992
SN.node[12].yCoor = -5.2915327822
SN.node[12].zCoor = 2
SN.node[13].xCoor = -39.4165624185
SN.node[13].yCoor = -21.1195154238
SN.node[13].zCoor = 2
SN.node[14].xCoor = -3.61117007589
SN.node[14].yCoor = 41.6064543
SN.node[14].zCoor = 2
SN.node[15].xCoor = -53.9379389645
SN.node[15].yCoor = 1.92084905754
SN.node[15].zCoor = 2
SN.node[16].xCoor = -59.1592329959
SN.node[16].yCoor = 25.2126493826
SN.node[16].zCoor = 2
SN.node[17].xCoor = -17.9968967005
SN.node[17].yCoor = 13.9071539426
SN.node[17].zCoor = 2
SN.node[18].xCoor = 8.58493035644
SN.node[18].yCoor = 4.4506957559
SN.node[18].zCoor = 2
SN.node[19].xCoor = 7.84131097824
SN.node[19].yCoor = 0.472895359597
SN.node[19].zCoor = 2
SN.node[20].xCoor = -0.759578679983
SN.node[20].yCoor = -21.1848873525
SN.node[20].zCoor = 2
SN.node[21].xCoor = -51.5784888072
SN.node[21].yCoor = -15.187859955
SN.node[21].zCoor = 2
SN.node[22].xCoor = -39.7295174535
SN.node[22].yCoor = -54.5848206762
SN.node[22].zCoor = 2
SN.node[23].xCoor = 5.74579868302
SN.node[23].yCoor = -38.6059046524
SN.node[23].zCoor = 2
SN.node[24].xCoor = -15.2499766479
SN.node[24].yCoor = 3.9162429318
SN.node[24].zCoor = 2
SN.node[25].xCoor = -2.6146136372
SN.node[25].yCoor = -3.90396925567
SN.node[25].zCoor = 2
SN.node[26].xCoor = -11.8224979085
SN.node[26].yCoor = -50.4911599886
SN.node[26].zCoor = 2
SN.node[27].xCoor = -25.02916531
SN.node[27].yCoor = 3.95891678834
SN.node[27].zCoor = 2
SN.node[28].xCoor = -22.7931142229
SN.node[28].yCoor = -54.9105429241
SN.node[28].zCoor = 2
SN.node[29].xCoor = 0.21708540589
SN.node[29].yCoor = 8.15664129757
SN.node[29].zCoor = 2
SN.node[30].xCoor = 23.840520197
SN.node[30].yCoor = 31.8760356481
SN.node[30].zCoor = 2
SN.node[31].xCoor = 3.12942470981
SN.node[31].yCoor = 32.7320776676
SN.node[31].zCoor = 2
SN.node[32].xCoor = 52.4402470269
SN.node[32].yCoor = 21.6437588993
SN.node[32].zCoor = 2
SN.node[33].xCoor = 59.0195010551
SN.node[33].yCoor = 46.7554941631
SN.node[33].zCoor = 2
SN.node[34].xCoor = 23.4446471703
SN.node[34].yCoor = 16.8499141372