# ****************************************************************************
# *  Copyright: National ICT Australia,  2007 - 2010                         *
# *  Developed at the ATP lab, Networked Systems research theme              *
# *  Author(s): Athanassios Boulis, Yuriy Tselishchev                        *
# *  This file is distributed under the terms in the attached LICENSE file.  *
# *  If you do not find this file, copies can be found by writing to:        *
# *                                                                          *
# *      NICTA, Locked Bag 9013, Alexandria, NSW 1435, Australia             *
# *      Attention:  License Inquiry.                                        *
# *                                                                          *
# ***************************************************************************/

[General]

# =============================================
# Always include the main Castalia.ini file
# =============================================
include ../Parameters/Castalia.ini

# Tempo de simulação
#sim-time-limit = 20000s
#sim-time-limit = 4000s
#sim-time-limit = 300s
sim-time-limit = 18000s # 5 horas 7200s # 2 horas

SN.field_x = 200	# meters
SN.field_y = 200	# meters

# Aplicação
SN.node[*].ApplicationName = "ThroughputTest"
SN.node[*].nodeApplication.constantDataPayload = 80 # o payload maximo e 120B

# Roteamento
SN.node[*].Communication.RoutingProtocolName = "BypassRouting"

# Camada do Rádio
SN.node[*].Communication.Radio.RadioParametersFile = "../Parameters/Radio/CC2420.txt"
SN.node[*].Communication.Radio.noiseFloor = -87
SN.node[*].Communication.Radio.mode = "normal"
# Name=normal/dataRate(kbps)=250/modulationType=PSK/bitsPerSymbol=4/bandwidth(MHz)=20/noiseBandwidth(MHz)=194/noiseFloor(dBm)=-100/
# sensitivity(dBm)=-95/powerConsumed(mW)=62
SN.node[*].Communication.Radio.state = "RX"
SN.node[*].Communication.Radio.TxOutputPower = "0dBm" #potencia 0dbm
SN.node[*].Communication.Radio.carrierFreq = 2405.0 # The carrier frequency (in MHz) to begin with.
#SN.node[1].Communication.Radio.carrierFreq = 2405.0 # The carrier frequency (in MHz) to begin with.
#SN.node[2].Communication.Radio.carrierFreq = 2410.0 # The carrier frequency (in MHz) to begin with.
#SN.node[3].Communication.Radio.carrierFreq = 2410.0 # The carrier frequency (in MHz) to begin with.
SN.node[*].Communication.Radio.collisionModel = 2 # Additive interference
SN.node[*].Communication.Radio.CCAthreshold = -77.0 # Threshold of the RSSI register (in dBm)
SN.node[*].Communication.Radio.symbolsForRSSI = 8
SN.node[*].Communication.Radio.carrierSenseInterruptEnabled = false
SN.node[*].Communication.Radio.bufferSize = 16
SN.node[*].Communication.Radio.maxPhyFrameSize = 1024
SN.node[*].Communication.Radio.phyFrameOverhead = 6 # in bytes (802.15.4. = 6 bytes)

# Camada do canal wireless
SN.wirelessChannel.onlyStaticNodes = true
# bidirectionalSigma: how variable is the average fade for link B->A if we know the fade of link A->B. Standard of a gaussian random variable
SN.wirelessChannel.bidirectionalSigma = 1.0
# temporalModelParametersFile: the filename that contains all parameters for the temporal channel variation model
SN.wirelessChannel.temporalModelParametersFile = ""
#SN.wirelessChannel.temporalModelParametersFile = ""
# Threshold in dBm above which, wireless channel module is delivering signal messages to radio modules of individual nodes
SN.wirelessChannel.signalDeliveryThreshold = -94
SN.wirelessChannel.meanTimeChange = 30

# Configuração do canal wireless para o Ambiente Padrão descrito na
# documentação
[Config ambPadrao]
SN.wirelessChannel.pathLossExponent = 2.4 # How fast is the signal strength fading
SN.wirelessChannel.PLd0 = 55 # Path loss at reference distance d0 (in dBm)
SN.wirelessChannel.d0 = 1.0 # Reference distance d0 (in meters)
# SIGMA: how variable is the average fade for nodes at the same distance from each other. Standard of a gaussian random variable.
SN.wirelessChannel.sigma = 0

# Configuração do canal wireless para o Ambiente 3
[Config amb3]
SN.wirelessChannel.pathLossExponent = 1.69
SN.wirelessChannel.PLd0 = 80.48
SN.wirelessChannel.d0 = 15
SN.wirelessChannel.sigma = 6.62
SN.wirelessChannel.K = 12.3
SN.wirelessChannel.K_sigma = 5.4

#Numero de nos
SN.numNodes = 19

[Config top1]
#positions
SN.node[0].xCoor = 0
SN.node[0].yCoor = 0
SN.node[0].zCoor = 2
SN.node[1].xCoor = 8.06659104514
SN.node[1].yCoor = -8.93819312409
SN.node[1].zCoor = 2
SN.node[2].xCoor = 27.9119467985
SN.node[2].yCoor = -21.661903702
SN.node[2].zCoor = 2
SN.node[3].xCoor = -11.730718139
SN.node[3].yCoor = 23.0172964397
SN.node[3].zCoor = 2
SN.node[4].xCoor = 17.0133154983
SN.node[4].yCoor = -33.0104588824
SN.node[4].zCoor = 2
SN.node[5].xCoor = -17.1590642264
SN.node[5].yCoor = -10.8943669265
SN.node[5].zCoor = 2
SN.node[6].xCoor = -20.2410265326
SN.node[6].yCoor = 10.1058301817
SN.node[6].zCoor = 2
SN.node[7].xCoor = -15.7265324424
SN.node[7].yCoor = -37.8418819914
SN.node[7].zCoor = 2
SN.node[8].xCoor = 36.8892335072
SN.node[8].yCoor = -42.2957763514
SN.node[8].zCoor = 2
SN.node[9].xCoor = 12.301113961
SN.node[9].yCoor = 15.7348358139
SN.node[9].zCoor = 2
SN.node[10].xCoor = -8.40924472882
SN.node[10].yCoor = 31.0472527358
SN.node[10].zCoor = 2
SN.node[11].xCoor = 66.2347051177
SN.node[11].yCoor = -13.8413823437
SN.node[11].zCoor = 2
SN.node[12].xCoor = -2.0914546071
SN.node[12].yCoor = 8.29462857877
SN.node[12].zCoor = 2
SN.node[13].xCoor = 25.6406966901
SN.node[13].yCoor = -51.7033380009
SN.node[13].zCoor = 2
SN.node[14].xCoor = -5.56806651179
SN.node[14].yCoor = -58.7888197987
SN.node[14].zCoor = 2
SN.node[15].xCoor = 8.14512280536
SN.node[15].yCoor = 14.8155607832
SN.node[15].zCoor = 2
SN.node[16].xCoor = 42.9181407127
SN.node[16].yCoor = -20.1445383555
SN.node[16].zCoor = 2
SN.node[17].xCoor = 31.6015233297
SN.node[17].yCoor = -1.04814227145
SN.node[17].zCoor = 2
SN.node[18].xCoor = 5.18932540719
SN.node[18].yCoor = -12.6920841533
SN.node[18].zCoor = 2
# 12.039982866
# 35.3314993466
# 37.5910463301
# 25.681079751
# 25.3013892865
# 34.1173861337
# 37.4370933091
# 44.08483954
# 25.0337680204
# 43.2468385557
# 39.1125856919
# 42.398088662
# 30.1271696611
# 49.9931914375
# 41.4889472757
# 15.0827137275
# 20.9413498919
# 24.4289824927
SN.wirelessChannel.seed = 21

[Config top2]
SN.node[0].xCoor = 0
SN.node[0].yCoor = 0
SN.node[0].zCoor = 2
SN.node[1].xCoor = -22.6358764772
SN.node[1].yCoor = -10.4456985337
SN.node[1].zCoor = 2
SN.node[2].xCoor = -24.7116273334
SN.node[2].yCoor = 24.8200578256
SN.node[2].zCoor = 2
SN.node[3].xCoor = -11.9655187642
SN.node[3].yCoor = -30.2961574953
SN.node[3].zCoor = 2
SN.node[4].xCoor = 8.95493713649
SN.node[4].yCoor = 13.41203563
SN.node[4].zCoor = 2
SN.node[5].xCoor = 3.00800102198
SN.node[5].yCoor = -2.35006960353
SN.node[5].zCoor = 2
SN.node[6].xCoor = -10.5020818493
SN.node[6].yCoor = 17.3174880137
SN.node[6].zCoor = 2
SN.node[7].xCoor = -35.4834470755
SN.node[7].yCoor = 24.9145955901
SN.node[7].zCoor = 2
SN.node[8].xCoor = -26.9258654633
SN.node[8].yCoor = -27.2227913221
SN.node[8].zCoor = 2
SN.node[9].xCoor = 15.8082796336
SN.node[9].yCoor = -42.2257223667
SN.node[9].zCoor = 2
SN.node[10].xCoor = -15.5575513914
SN.node[10].yCoor = -13.1034441866
SN.node[10].zCoor = 2
SN.node[11].xCoor = 7.06014462016
SN.node[11].yCoor = 27.2461930252
SN.node[11].zCoor = 2
SN.node[12].xCoor = 2.46174181655
SN.node[12].yCoor = 14.1969899998
SN.node[12].zCoor = 2
SN.node[13].xCoor = -39.36318185
SN.node[13].yCoor = 16.2955115771
SN.node[13].zCoor = 2
SN.node[14].xCoor = -60.7610895993
SN.node[14].yCoor = 41.3324798163
SN.node[14].zCoor = 2
SN.node[15].xCoor = -48.8755935813
SN.node[15].yCoor = 56.6481896606
SN.node[15].zCoor = 2
SN.node[16].xCoor = -4.28524398636
SN.node[16].yCoor = 48.6608646849
SN.node[16].zCoor = 2
SN.node[17].xCoor = 14.488049337
SN.node[17].yCoor = -4.91777044121
SN.node[17].zCoor = 2
SN.node[18].xCoor = -34.2836352928
SN.node[18].yCoor = 31.734524988
SN.node[18].zCoor = 2
# 24.9298119076
# 35.0242743812
# 22.5365759314
# 39.5875104572
# 26.8914049645
# 30.2989026094
# 37.621941348
# 17.3168948698
# 49.879084333
# 7.56083976652
# 31.8642687831
# 29.1760443
# 16.9509863576
# 39.6512775286
# 39.9615720529
# 31.3946047649
# 49.2031816155
# 11.8081832859
SN.wirelessChannel.seed = 22

[Config top3]
SN.node[0].xCoor = 0
SN.node[0].yCoor = 0
SN.node[0].zCoor = 2
SN.node[1].xCoor = 28.6556929576
SN.node[1].yCoor = 9.25563678369
SN.node[1].zCoor = 2
SN.node[2].xCoor = 16.083910837
SN.node[2].yCoor = -5.08372815583
SN.node[2].zCoor = 2
SN.node[3].xCoor = 45.2271585499
SN.node[3].yCoor = -27.663887337
SN.node[3].zCoor = 2
SN.node[4].xCoor = 59.1464922494
SN.node[4].yCoor = 9.52379366638
SN.node[4].zCoor = 2
SN.node[5].xCoor = 57.8667948786
SN.node[5].yCoor = -22.0867414055
SN.node[5].zCoor = 2
SN.node[6].xCoor = 1.36978019221
SN.node[6].yCoor = 44.710087351
SN.node[6].zCoor = 2
SN.node[7].xCoor = 18.5855630949
SN.node[7].yCoor = 13.2375906672
SN.node[7].zCoor = 2
SN.node[8].xCoor = 23.7588304528
SN.node[8].yCoor = 23.4238726955
SN.node[8].zCoor = 2
SN.node[9].xCoor = -7.57841784899
SN.node[9].yCoor = -21.1018494465
SN.node[9].zCoor = 2
SN.node[10].xCoor = -5.25310655833
SN.node[10].yCoor = -29.904916525
SN.node[10].zCoor = 2
SN.node[11].xCoor = 50.2405649198
SN.node[11].yCoor = -44.0288747562
SN.node[11].zCoor = 2
SN.node[12].xCoor = -20.4423359742
SN.node[12].yCoor = -24.6691220955
SN.node[12].zCoor = 2
SN.node[13].xCoor = 8.87816350835
SN.node[13].yCoor = 19.3388377869
SN.node[13].zCoor = 2
SN.node[14].xCoor = 32.527338986
SN.node[14].yCoor = -5.69736182273
SN.node[14].zCoor = 2
SN.node[15].xCoor = 35.8452914516
SN.node[15].yCoor = -2.73847654617
SN.node[15].zCoor = 2
SN.node[16].xCoor = -14.843007287
SN.node[16].yCoor = -38.5712236117
SN.node[16].zCoor = 2
SN.node[17].xCoor = 8.70500368934
SN.node[17].yCoor = 27.9878447537
SN.node[17].zCoor = 2
SN.node[18].xCoor = 7.59205661472
SN.node[18].yCoor = 30.7286625557
SN.node[18].zCoor = 2
# 30.1133782754
# 16.8682091454
# 40.4680705393
# 30.4919784462
# 42.8442895376
# 44.7385639072
# 10.8288259836
# 14.9906027646
# 47.2703686908
# 51.8011160117
# 51.8015584886
# 41.4458002924
# 25.4633957239
# 16.4548739153
# 19.9000595203
# 45.5838416169
# 33.8847636174
# 36.8054196635
SN.wirelessChannel.seed = 23

[Config top4]
SN.node[0].xCoor = 0
SN.node[0].yCoor = 0
SN.node[0].zCoor = 2
SN.node[1].xCoor = -1.73531018927
SN.node[1].yCoor = 29.6732836355
SN.node[1].zCoor = 2
SN.node[2].xCoor = -3.85580808522
SN.node[2].yCoor = 28.727816752
SN.node[2].zCoor = 2
SN.node[3].xCoor = 4.79379718008
SN.node[3].yCoor = 11.1981306161
SN.node[3].zCoor = 2
SN.node[4].xCoor = 2.06795032029
SN.node[4].yCoor = 60.4684058485
SN.node[4].zCoor = 2
SN.node[5].xCoor = -41.0005831954
SN.node[5].yCoor = 6.2894394652
SN.node[5].zCoor = 2
SN.node[6].xCoor = 10.3817448035
SN.node[6].yCoor = 60.9737552352
SN.node[6].zCoor = 2
SN.node[7].xCoor = 28.6914991789
SN.node[7].yCoor = 21.0062275658
SN.node[7].zCoor = 2
SN.node[8].xCoor = 17.417649243
SN.node[8].yCoor = 35.0684729563
SN.node[8].zCoor = 2
SN.node[9].xCoor = 13.4677947892
SN.node[9].yCoor = -5.83277464213
SN.node[9].zCoor = 2
SN.node[10].xCoor = -27.8977469243
SN.node[10].yCoor = 62.6428317652
SN.node[10].zCoor = 2
SN.node[11].xCoor = -15.2184287488
SN.node[11].yCoor = 28.252808374
SN.node[11].zCoor = 2
SN.node[12].xCoor = -14.7855059752
SN.node[12].yCoor = -6.50951156334
SN.node[12].zCoor = 2
SN.node[13].xCoor = -26.7210636269
SN.node[13].yCoor = 63.8351857771
SN.node[13].zCoor = 2
SN.node[14].xCoor = -37.8862904769
SN.node[14].yCoor = 51.6532576418
SN.node[14].zCoor = 2
SN.node[15].xCoor = -41.5855720501
SN.node[15].yCoor = 52.123631023
SN.node[15].zCoor = 2
SN.node[16].xCoor = 35.5443757321
SN.node[16].yCoor = 47.8120213535
SN.node[16].zCoor = 2
SN.node[17].xCoor = -19.5458936455
SN.node[17].yCoor = 58.3053780648
SN.node[17].zCoor = 2
SN.node[18].xCoor = -37.8456307111
SN.node[18].yCoor = 47.7349958767
SN.node[18].zCoor = 2
# 29.7239812805
# 28.9854223935
# 19.5949106181
# 31.0290886528
# 45.7008296689
# 33.5640066748
# 31.6371393973
# 19.8983397002
# 38.6240155266
# 42.0887657195
# 11.3725450671
# 36.8934628732
# 41.8968646899
# 41.0322991289
# 44.394810668
# 43.778777394
# 33.4815011327
# 38.9433036659
SN.wirelessChannel.seed = 24

[Config top5]
#positions
SN.node[0].xCoor = 0
SN.node[0].yCoor = 0
SN.node[0].zCoor = 2
SN.node[1].xCoor = 11.87810772
SN.node[1].yCoor = 7.56903727133
SN.node[1].zCoor = 2
SN.node[2].xCoor = -16.8496879241
SN.node[2].yCoor = -11.4128756118
SN.node[2].zCoor = 2
SN.node[3].xCoor = 51.1671911668
SN.node[3].yCoor = 25.9656510298
SN.node[3].zCoor = 2
SN.node[4].xCoor = -17.6089909021
SN.node[4].yCoor = 39.0416706806
SN.node[4].zCoor = 2
SN.node[5].xCoor = 32.7142869467
SN.node[5].yCoor = -10.3678861679
SN.node[5].zCoor = 2
SN.node[6].xCoor = 34.1722522683
SN.node[6].yCoor = 45.0971194699
SN.node[6].zCoor = 2
SN.node[7].xCoor = -5.55510264727
SN.node[7].yCoor = 31.0010422065
SN.node[7].zCoor = 2
SN.node[8].xCoor = 44.9729901942
SN.node[8].yCoor = -29.7834869327
SN.node[8].zCoor = 2
SN.node[9].xCoor = 12.1017177567
SN.node[9].yCoor = 28.7759551855
SN.node[9].zCoor = 2
SN.node[10].xCoor = 3.27583898754
SN.node[10].yCoor = 1.18405993093
SN.node[10].zCoor = 2
SN.node[11].xCoor = 8.88346324556
SN.node[11].yCoor = -12.2582068833
SN.node[11].zCoor = 2
SN.node[12].xCoor = -52.1635742398
SN.node[12].yCoor = -1.03306197296
SN.node[12].zCoor = 2
SN.node[13].xCoor = -14.6992833446
SN.node[13].yCoor = 4.69014260856
SN.node[13].zCoor = 2
SN.node[14].xCoor = -50.7283750764
SN.node[14].yCoor = -11.8212388532
SN.node[14].zCoor = 2
SN.node[15].xCoor = -50.5348736643
SN.node[15].yCoor = -32.2443885553
SN.node[15].zCoor = 2
SN.node[16].xCoor = -38.7782726714
SN.node[16].yCoor = 26.1815594987
SN.node[16].zCoor = 2
SN.node[17].xCoor = -11.1291909528
SN.node[17].yCoor = -13.4198600972
SN.node[17].zCoor = 2
SN.node[18].xCoor = 19.3428034149
SN.node[18].yCoor = 4.83117342114
SN.node[18].zCoor = 2
# 14.0847352912
# 20.3510617136
# 43.3828016139
# 43.127898614
# 27.4932643975
# 43.6507254767
# 29.2057473623
# 49.9047323448
# 21.2080967762
# 10.7129343778
# 25.747031947
# 36.8077586644
# 16.2459667506
# 33.8811482052
# 39.6061064719
# 43.5224583439
# 6.06234874644
# 39.6707141139
SN.wirelessChannel.seed = 25

[Config top6]
SN.node[0].xCoor = 0
SN.node[0].yCoor = 0
SN.node[0].zCoor = 2
SN.node[1].xCoor = 17.9798192332
SN.node[1].yCoor = -18.5420524946
SN.node[1].zCoor = 2
SN.node[2].xCoor = 17.2799140402
SN.node[2].yCoor = 29.8176562839
SN.node[2].zCoor = 2
SN.node[3].xCoor = -20.3031903494
SN.node[3].yCoor = -31.6183350222
SN.node[3].zCoor = 2
SN.node[4].xCoor = -13.275467707
SN.node[4].yCoor = 6.19783292016
SN.node[4].zCoor = 2
SN.node[5].xCoor = 45.5462170429
SN.node[5].yCoor = -54.8100177432
SN.node[5].zCoor = 2
SN.node[6].xCoor = 5.00506428651
SN.node[6].yCoor = -14.1276008578
SN.node[6].zCoor = 2
SN.node[7].xCoor = -18.521226783
SN.node[7].yCoor = 0.336820236211
SN.node[7].zCoor = 2
SN.node[8].xCoor = 46.2428623472
SN.node[8].yCoor = -55.6084918215
SN.node[8].zCoor = 2
SN.node[9].xCoor = -18.6022071156
SN.node[9].yCoor = 17.8937313241
SN.node[9].zCoor = 2
SN.node[10].xCoor = 6.83647366437
SN.node[10].yCoor = -36.3113276758
SN.node[10].zCoor = 2
SN.node[11].xCoor = -10.5970330308
SN.node[11].yCoor = 64.5850513805
SN.node[11].zCoor = 2
SN.node[12].xCoor = -1.78081073469
SN.node[12].yCoor = -6.09016707245
SN.node[12].zCoor = 2
SN.node[13].xCoor = 48.6297210241
SN.node[13].yCoor = 8.3723660535
SN.node[13].zCoor = 2
SN.node[14].xCoor = -20.5472048097
SN.node[14].yCoor = -3.06281692572
SN.node[14].zCoor = 2
SN.node[15].xCoor = 5.73774670022
SN.node[15].yCoor = 26.1340410342
SN.node[15].zCoor = 2
SN.node[16].xCoor = 37.4083673075
SN.node[16].yCoor = 43.2993279713
SN.node[16].zCoor = 2
SN.node[17].xCoor = 52.462671538
SN.node[17].yCoor = 65.4579777049
SN.node[17].zCoor = 2
SN.node[18].xCoor = 4.60430347081
SN.node[18].yCoor = 52.1587498225
SN.node[18].zCoor = 2
# 25.8279230751
# 34.4628503682
# 40.4546411112
# 39.8616970543
# 45.555148902
# 13.7051687031
# 41.0942598895
# 46.6124503801
# 51.6314922723
# 20.9743007256
# 44.5633923731
# 40.6532041435
# 37.9830339888
# 50.1200203409
# 12.1157190547
# 24.226227573
# 50.0805245194
# 25.6864860152
SN.wirelessChannel.seed = 26

[Config top7]
SN.node[0].xCoor = 0
SN.node[0].yCoor = 0
SN.node[0].zCoor = 2
SN.node[1].xCoor = -20.0500057313
SN.node[1].yCoor = 5.39523390916
SN.node[1].zCoor = 2
SN.node[2].xCoor = 0.862518713569
SN.node[2].yCoor = 5.05321655298
SN.node[2].zCoor = 2
SN.node[3].xCoor = -1.83643420901
SN.node[3].yCoor = 2.28719286311
SN.node[3].zCoor = 2
SN.node[4].xCoor = -46.9744988451
SN.node[4].yCoor = 40.3240074055
SN.node[4].zCoor = 2
SN.node[5].xCoor = -14.5870318901
SN.node[5].yCoor = -26.7859988108
SN.node[5].zCoor = 2
SN.node[6].xCoor = -13.9482958195
SN.node[6].yCoor = 27.4225572984
SN.node[6].zCoor = 2
SN.node[7].xCoor = -40.6582477338
SN.node[7].yCoor = -33.2743589802
SN.node[7].zCoor = 2
SN.node[8].xCoor = 14.1091915816
SN.node[8].yCoor = 8.72803961165
SN.node[8].zCoor = 2
SN.node[9].xCoor = -35.9961935198
SN.node[9].yCoor = -20.6889654699
SN.node[9].zCoor = 2
SN.node[10].xCoor = -22.6614103588
SN.node[10].yCoor = 35.0506400427
SN.node[10].zCoor = 2
SN.node[11].xCoor = 21.1637072715
SN.node[11].yCoor = 42.2568749583
SN.node[11].zCoor = 2
SN.node[12].xCoor = -26.3780781267
SN.node[12].yCoor = -18.2519396406
SN.node[12].zCoor = 2
SN.node[13].xCoor = 2.54324343568
SN.node[13].yCoor = -5.61405239759
SN.node[13].zCoor = 2
SN.node[14].xCoor = -1.08407463118
SN.node[14].yCoor = -3.34938544624
SN.node[14].zCoor = 2
SN.node[15].xCoor = 33.3194116237
SN.node[15].yCoor = 9.43062417102
SN.node[15].zCoor = 2
SN.node[16].xCoor = -7.94243567995
SN.node[16].yCoor = 20.0868526775
SN.node[16].zCoor = 2
SN.node[17].xCoor = 19.7352784325
SN.node[17].yCoor = 10.89829399
SN.node[17].zCoor = 2
SN.node[18].xCoor = 17.0814746997
SN.node[18].yCoor = -9.43774803728
SN.node[18].zCoor = 2
# 20.7632193737
# 5.12629847575
# 18.4768532695
# 44.1015594667
# 32.6416271433
# 22.8568116662
# 43.8182274021
# 34.321397916
# 30.5723136552
# 29.7701620263
# 42.3821950305
# 35.8494131252
# 10.7988639428
# 8.62513455008
# 32.7507495309
# 17.4223258206
# 19.7571756497
# 21.7495422489
SN.wirelessChannel.seed = 27

[Config top8]
SN.node[0].xCoor = 0
SN.node[0].yCoor = 0
SN.node[0].zCoor = 2
SN.node[1].xCoor = -19.9888565266
SN.node[1].yCoor = 9.96104090915
SN.node[1].zCoor = 2
SN.node[2].xCoor = 14.5698480903
SN.node[2].yCoor = -17.4647190922
SN.node[2].zCoor = 2
SN.node[3].xCoor = -23.3756682697
SN.node[3].yCoor = -21.4291155263
SN.node[3].zCoor = 2
SN.node[4].xCoor = -38.641087556
SN.node[4].yCoor = 2.33743935878
SN.node[4].zCoor = 2
SN.node[5].xCoor = -19.5677207496
SN.node[5].yCoor = -25.7627357959
SN.node[5].zCoor = 2
SN.node[6].xCoor = -38.4246075543
SN.node[6].yCoor = -8.20432988422
SN.node[6].zCoor = 2
SN.node[7].xCoor = -43.1751057835
SN.node[7].yCoor = 48.1199095087
SN.node[7].zCoor = 2
SN.node[8].xCoor = -42.3232072319
SN.node[8].yCoor = -13.050039889
SN.node[8].zCoor = 2
SN.node[9].xCoor = 15.7284954742
SN.node[9].yCoor = 8.29798973131
SN.node[9].zCoor = 2
SN.node[10].xCoor = -34.7106180595
SN.node[10].yCoor = 31.8481488219
SN.node[10].zCoor = 2
SN.node[11].xCoor = 31.8681633664
SN.node[11].yCoor = -44.1496195219
SN.node[11].zCoor = 2
SN.node[12].xCoor = 19.248508119
SN.node[12].yCoor = -6.38733202525
SN.node[12].zCoor = 2
SN.node[13].xCoor = 26.5411024416
SN.node[13].yCoor = -12.8363003505
SN.node[13].zCoor = 2
SN.node[14].xCoor = -0.527184075016
SN.node[14].yCoor = -17.6088244572
SN.node[14].zCoor = 2
SN.node[15].xCoor = 42.5932065788
SN.node[15].yCoor = -29.8471179658
SN.node[15].zCoor = 2
SN.node[16].xCoor = 39.143408325
SN.node[16].yCoor = -37.5308634869
SN.node[16].zCoor = 2
SN.node[17].xCoor = -14.5595828327
SN.node[17].yCoor = -28.7591725933
SN.node[17].zCoor = 2
SN.node[18].xCoor = 48.3251492492
SN.node[18].yCoor = 3.64857764327
SN.node[18].zCoor = 2
# 22.3333096794
# 22.7441615881
# 31.5723362269
# 20.1500626047
# 35.726258934
# 25.8816076011
# 44.6508836128
# 32.0676326056
# 35.7560480642
# 26.3775615897
# 31.8011890082
# 12.0249059828
# 12.8348428426
# 15.0977199125
# 30.6371085914
# 31.7255419729
# 31.2424138918
# 39.8144654036
SN.wirelessChannel.seed = 28

[Config top9]
SN.node[0].xCoor = 0
SN.node[0].yCoor = 0
SN.node[0].zCoor = 2
SN.node[1].xCoor = 13.492946359
SN.node[1].yCoor = 27.1106266843
SN.node[1].zCoor = 2
SN.node[2].xCoor = 19.9689032629
SN.node[2].yCoor = -18.0361012406
SN.node[2].zCoor = 2
SN.node[3].xCoor = 7.51944652193
SN.node[3].yCoor = 65.0936727036
SN.node[3].zCoor = 2
SN.node[4].xCoor = 47.3803806096
SN.node[4].yCoor = -2.82476419073
SN.node[4].zCoor = 2
SN.node[5].xCoor = 37.1954483975
SN.node[5].yCoor = 3.56030553741
SN.node[5].zCoor = 2
SN.node[6].xCoor = -13.1025810555
SN.node[6].yCoor = 31.607765592
SN.node[6].zCoor = 2
SN.node[7].xCoor = 4.31788877156
SN.node[7].yCoor = 53.147798002
SN.node[7].zCoor = 2
SN.node[8].xCoor = 17.2523534815
SN.node[8].yCoor = 60.7146319808
SN.node[8].zCoor = 2
SN.node[9].xCoor = -25.2277269062
SN.node[9].yCoor = 43.2854289531
SN.node[9].zCoor = 2
SN.node[10].xCoor = 51.5081231341
SN.node[10].yCoor = 39.6311631717
SN.node[10].zCoor = 2
SN.node[11].xCoor = 8.95182042967
SN.node[11].yCoor = 14.9141417584
SN.node[11].zCoor = 2
SN.node[12].xCoor = -7.10081854864
SN.node[12].yCoor = -51.7508643962
SN.node[12].zCoor = 2
SN.node[13].xCoor = 41.5776961604
SN.node[13].yCoor = -20.6962281718
SN.node[13].zCoor = 2
SN.node[14].xCoor = -11.5929100448
SN.node[14].yCoor = -54.7895190365
SN.node[14].zCoor = 2
SN.node[15].xCoor = -14.7306373122
SN.node[15].yCoor = -12.149820137
SN.node[15].zCoor = 2
SN.node[16].xCoor = -11.4068921946
SN.node[16].yCoor = -7.05443930626
SN.node[16].zCoor = 2
SN.node[17].xCoor = 41.9237071873
SN.node[17].yCoor = -35.7679388438
SN.node[17].zCoor = 2
SN.node[18].xCoor = 36.842367084
SN.node[18].yCoor = -38.1943698262
SN.node[18].zCoor = 2
# 30.2827621043
# 26.9083266943
# 38.4498957763
# 45.2159908321
# 33.4129649837
# 26.9730668782
# 27.6064480142
# 33.8136409439
# 41.9632549565
# 40.0239615627
# 34.7432673744
# 43.2371957184
# 21.7719132319
# 48.4454515816
# 35.195261348
# 33.2421034146
# 28.2211176275
# 26.2882021768
SN.wirelessChannel.seed = 29

[Config top10]
SN.node[0].xCoor = 0
SN.node[0].yCoor = 0
SN.node[0].zCoor = 2
SN.node[1].xCoor = 22.3915651878
SN.node[1].yCoor = 20.3470704979
SN.node[1].zCoor = 2
SN.node[2].xCoor = -23.7186693831
SN.node[2].yCoor = -2.75128223679
SN.node[2].zCoor = 2
SN.node[3].xCoor = 51.6803518063
SN.node[3].yCoor = 30.4723286699
SN.node[3].zCoor = 2
SN.node[4].xCoor = -17.3232372037
SN.node[4].yCoor = 23.7049159199
SN.node[4].zCoor = 2
SN.node[5].xCoor = 51.3545960605
SN.node[5].yCoor = 4.65179751348
SN.node[5].zCoor = 2
SN.node[6].xCoor = 58.5876209457
SN.node[6].yCoor = -18.5205618558
SN.node[6].zCoor = 2
SN.node[7].xCoor = -10.1139169434
SN.node[7].yCoor = 2.13895525237
SN.node[7].zCoor = 2
SN.node[8].xCoor = 3.40022180717
SN.node[8].yCoor = 40.4915398228
SN.node[8].zCoor = 2
SN.node[9].xCoor = 48.3216294612
SN.node[9].yCoor = 57.604113276
SN.node[9].zCoor = 2
SN.node[10].xCoor = 46.2200697764
SN.node[10].yCoor = -8.61310388823
SN.node[10].zCoor = 2
SN.node[11].xCoor = 5.33056573739
SN.node[11].yCoor = -7.38743339615
SN.node[11].zCoor = 2
SN.node[12].xCoor = -10.8197299776
SN.node[12].yCoor = -0.348065303282
SN.node[12].zCoor = 2
SN.node[13].xCoor = -31.1132328315
SN.node[13].yCoor = 27.6591041614
SN.node[13].zCoor = 2
SN.node[14].xCoor = -4.44261442242
SN.node[14].yCoor = -8.58832881179
SN.node[14].zCoor = 2
SN.node[15].xCoor = -60.8441921098
SN.node[15].yCoor = 18.3120052261
SN.node[15].zCoor = 2
SN.node[16].xCoor = -17.8020847367
SN.node[16].yCoor = -17.0226603205
SN.node[16].zCoor = 2
SN.node[17].xCoor = -18.0635140613
SN.node[17].yCoor = -10.313658267
SN.node[17].zCoor = 2
SN.node[18].xCoor = -1.14608628822
SN.node[18].yCoor = -22.0437159724
SN.node[18].zCoor = 2
# 30.2553378663
# 23.8777057368
# 30.9895768709
# 39.8565007856
# 32.9423549764
# 53.111649355
# 37.2577754217
# 27.6852084656
# 45.3922401936
# 37.5031909496
# 29.4168652079
# 13.1209027669
# 31.2965041096
# 20.1404420897
# 42.6844997215
# 15.4492137757
# 9.44300338535
# 29.6937620894
SN.wirelessChannel.seed = 30


[Config abmptree]
SN.node[*].Communication.MACProtocolName = "ABMPTree"
SN.node[*].Communication.treeTopology = true
SN.node[*].Communication.MAC.slotFrameSize = 16
SN.node[*].Communication.MAC.numberOfAttempts = 1
SN.node[*].Communication.MAC.prrThreshold = 0.9
SN.node[*].Communication.MAC.beaconThreshold = 0.9
SN.node[*].Communication.MAC.slotSize = 10
SN.node[0].Communication.MAC.isCoordinator = true
SN.node[0].Communication.MAC.nodeIdSlot = "00000000000000000000010201020102"
SN.node[0].Application.packet_rate = 0
SN.node[0].Communication.MAC.channels = "1111111111111111"
SN.node[1].Communication.MAC.isClusterHead = true
SN.node[1].Communication.MAC.clusterID = 0
SN.node[1].Communication.MAC.macBufferSize = 12
SN.node[1].Communication.MAC.allocatedSlots = "0100000000101010"
SN.node[1].Communication.MAC.nodeIdSlot = "00010304050607080910010001000100"
SN.node[1].Communication.MAC.channels = "1010101010101010"
SN.node[1].Application.packet_rate = 0
SN.node[2].Communication.MAC.isClusterHead = true
SN.node[2].Communication.MAC.clusterID = 0
SN.node[2].Communication.MAC.macBufferSize = 12
SN.node[2].Communication.MAC.allocatedSlots = "0100000000010101"
SN.node[2].Communication.MAC.nodeIdSlot = "00021112131415161718000200020002"
SN.node[2].Communication.MAC.channels = "0101010101010101"
SN.node[2].Application.packet_rate = 0
SN.node[3].Communication.MAC.clusterID = 1
SN.node[3].Communication.MAC.macBufferSize = 1
SN.node[3].Communication.MAC.allocatedSlots = "010000000"
SN.node[3].Application.packet_rate = 1
SN.node[4].Communication.MAC.clusterID = 1
SN.node[4].Communication.MAC.macBufferSize = 1
SN.node[4].Communication.MAC.allocatedSlots = "001000000"
SN.node[4].Application.packet_rate = 1
SN.node[5].Communication.MAC.clusterID = 1
SN.node[5].Communication.MAC.macBufferSize = 1
SN.node[5].Communication.MAC.allocatedSlots = "000100000"
SN.node[5].Application.packet_rate = 1
SN.node[6].Communication.MAC.clusterID = 1
SN.node[6].Communication.MAC.macBufferSize = 1
SN.node[6].Communication.MAC.allocatedSlots = "000010000"
SN.node[6].Application.packet_rate = 1
SN.node[7].Communication.MAC.clusterID = 1
SN.node[7].Communication.MAC.macBufferSize = 1
SN.node[7].Communication.MAC.allocatedSlots = "000001000"
SN.node[7].Application.packet_rate = 1
SN.node[8].Communication.MAC.clusterID = 1
SN.node[8].Communication.MAC.macBufferSize = 1
SN.node[8].Communication.MAC.allocatedSlots = "000000100"
SN.node[8].Application.packet_rate = 1
SN.node[9].Communication.MAC.clusterID = 1
SN.node[9].Communication.MAC.macBufferSize = 1
SN.node[9].Communication.MAC.allocatedSlots = "000000010"
SN.node[9].Application.packet_rate = 1
SN.node[10].Communication.MAC.clusterID = 1
SN.node[10].Communication.MAC.macBufferSize = 1
SN.node[10].Communication.MAC.allocatedSlots = "000000001"
SN.node[10].Application.packet_rate = 1
SN.node[11].Communication.MAC.clusterID = 2
SN.node[11].Communication.MAC.macBufferSize = 1
SN.node[11].Communication.MAC.allocatedSlots = "010000000"
SN.node[11].Application.packet_rate = 1
SN.node[12].Communication.MAC.clusterID = 2
SN.node[12].Communication.MAC.macBufferSize = 1
SN.node[12].Communication.MAC.allocatedSlots = "001000000"
SN.node[12].Application.packet_rate = 1
SN.node[13].Communication.MAC.clusterID = 2
SN.node[13].Communication.MAC.macBufferSize = 1
SN.node[13].Communication.MAC.allocatedSlots = "000100000"
SN.node[13].Application.packet_rate = 1
SN.node[14].Communication.MAC.clusterID = 2
SN.node[14].Communication.MAC.macBufferSize = 1
SN.node[14].Communication.MAC.allocatedSlots = "000010000"
SN.node[14].Application.packet_rate = 1
SN.node[15].Communication.MAC.clusterID = 2
SN.node[15].Communication.MAC.macBufferSize = 1
SN.node[15].Communication.MAC.allocatedSlots = "000001000"
SN.node[15].Application.packet_rate = 1
SN.node[16].Communication.MAC.clusterID = 2
SN.node[16].Communication.MAC.macBufferSize = 1
SN.node[16].Communication.MAC.allocatedSlots = "000000100"
SN.node[16].Application.packet_rate = 1
SN.node[17].Communication.MAC.clusterID = 2
SN.node[17].Communication.MAC.macBufferSize = 1
SN.node[17].Communication.MAC.allocatedSlots = "000000010"
SN.node[17].Application.packet_rate = 1
SN.node[18].Communication.MAC.clusterID = 2
SN.node[18].Communication.MAC.macBufferSize = 1
SN.node[18].Communication.MAC.allocatedSlots = "000000001"
SN.node[18].Application.packet_rate = 1

[Config abmptree2]
SN.node[*].Communication.MACProtocolName = "ABMPTree"
SN.node[*].Communication.treeTopology = true
SN.node[*].Communication.MAC.slotFrameSize = 30
SN.node[*].Communication.MAC.numberOfAttempts = 1
SN.node[*].Communication.MAC.prrThreshold = 0.9
SN.node[*].Communication.MAC.beaconThreshold = 0.9
SN.node[*].Communication.MAC.slotSize = 10
SN.node[0].Communication.MAC.isCoordinator = true
SN.node[0].Communication.MAC.nodeIdSlot = "000000000000000000000102010201020000000000000000010201020102"
SN.node[0].Application.packet_rate = 0
SN.node[0].Communication.MAC.channels = "1111111111111111"
SN.node[1].Communication.MAC.isClusterHead = true
SN.node[1].Communication.MAC.clusterID = 0
SN.node[1].Communication.MAC.macBufferSize = 12
SN.node[1].Communication.MAC.allocatedSlots = "010000000010101000000000101010"
SN.node[1].Communication.MAC.nodeIdSlot = "000103040506070809100100010001000304050607080910010001000100"
SN.node[1].Communication.MAC.channels = "1010101010101010"
SN.node[1].Application.packet_rate = 0
SN.node[2].Communication.MAC.isClusterHead = true
SN.node[2].Communication.MAC.clusterID = 0
SN.node[2].Communication.MAC.macBufferSize = 12
SN.node[2].Communication.MAC.allocatedSlots = "010000000001010100000000010101"