# ****************************************************************************
# *  Copyright: National ICT Australia,  2007 - 2010                         *
# *  Developed at the ATP lab, Networked Systems research theme              *
# *  Author(s): Athanassios Boulis, Yuriy Tselishchev                        *
# *  This file is distributed under the terms in the attached LICENSE file.  *
# *  If you do not find this file, copies can be found by writing to:        *
# *                                                                          *
# *      NICTA, Locked Bag 9013, Alexandria, NSW 1435, Australia             *
# *      Attention:  License Inquiry.                                        *
# *                                                                          *
# ***************************************************************************/

[General]

# =============================================
# Always include the main Castalia.ini file
# =============================================
include ../Parameters/Castalia.ini

# Tempo de simulação
#sim-time-limit = 20000s
#sim-time-limit = 4000s
#sim-time-limit = 300s
sim-time-limit = 2000s #18000s # 5 horas 7200s # 2 horas

SN.field_x = 200	# meters
SN.field_y = 200	# meters

# Aplicação
SN.node[*].ApplicationName = "ThroughputTest"
SN.node[*].nodeApplication.constantDataPayload = 80 # o payload maximo e 120B

# Roteamento
SN.node[*].Communication.RoutingProtocolName = "BypassRouting"

# Camada do Rádio
SN.node[*].Communication.Radio.RadioParametersFile = "../Parameters/Radio/CC2420.txt"
SN.node[*].Communication.Radio.noiseFloor = -87
SN.node[*].Communication.Radio.mode = "normal"
# Name=normal/dataRate(kbps)=250/modulationType=PSK/bitsPerSymbol=4/bandwidth(MHz)=20/noiseBandwidth(MHz)=194/noiseFloor(dBm)=-100/
# sensitivity(dBm)=-95/powerConsumed(mW)=62
SN.node[*].Communication.Radio.state = "RX"
SN.node[*].Communication.Radio.TxOutputPower = "0dBm" #potencia 0dbm
SN.node[*].Communication.Radio.carrierFreq = 2405.0 # The carrier frequency (in MHz) to begin with.
#SN.node[1].Communication.Radio.carrierFreq = 2405.0 # The carrier frequency (in MHz) to begin with.
#SN.node[2].Communication.Radio.carrierFreq = 2410.0 # The carrier frequency (in MHz) to begin with.
#SN.node[3].Communication.Radio.carrierFreq = 2410.0 # The carrier frequency (in MHz) to begin with.
SN.node[*].Communication.Radio.collisionModel = 2 # Additive interference
SN.node[*].Communication.Radio.CCAthreshold = -77.0 # Threshold of the RSSI register (in dBm)
SN.node[*].Communication.Radio.symbolsForRSSI = 8
SN.node[*].Communication.Radio.carrierSenseInterruptEnabled = false
SN.node[*].Communication.Radio.bufferSize = 16
SN.node[*].Communication.Radio.maxPhyFrameSize = 1024
SN.node[*].Communication.Radio.phyFrameOverhead = 6 # in bytes (802.15.4. = 6 bytes)

# Camada do canal wireless
SN.wirelessChannel.onlyStaticNodes = true
# bidirectionalSigma: how variable is the average fade for link B->A if we know the fade of link A->B. Standard of a gaussian random variable
SN.wirelessChannel.bidirectionalSigma = 1.0
# temporalModelParametersFile: the filename that contains all parameters for the temporal channel variation model
SN.wirelessChannel.temporalModelParametersFile = ""
#SN.wirelessChannel.temporalModelParametersFile = ""
# Threshold in dBm above which, wireless channel module is delivering signal messages to radio modules of individual nodes
SN.wirelessChannel.signalDeliveryThreshold = -94
SN.wirelessChannel.meanTimeChange = 30

# Configuração do canal wireless para o Ambiente Padrão descrito na
# documentação
[Config ambPadrao]
SN.wirelessChannel.pathLossExponent = 2.4 # How fast is the signal strength fading
SN.wirelessChannel.PLd0 = 55 # Path loss at reference distance d0 (in dBm)
SN.wirelessChannel.d0 = 1.0 # Reference distance d0 (in meters)
# SIGMA: how variable is the average fade for nodes at the same distance from each other. Standard of a gaussian random variable.
SN.wirelessChannel.sigma = 0

# Configuração do canal wireless para o Ambiente 3
[Config amb3]
SN.wirelessChannel.pathLossExponent = 1.69
SN.wirelessChannel.PLd0 = 80.48
SN.wirelessChannel.d0 = 15
SN.wirelessChannel.sigma = 6.62
SN.wirelessChannel.K = 12.3
SN.wirelessChannel.K_sigma = 5.4

#Numero de nos
SN.numNodes = 27

[Config top1]
#positions
SN.node[0].xCoor = 0
SN.node[0].yCoor = 0
SN.node[0].zCoor = 2
SN.node[1].xCoor = -17.3461776593
SN.node[1].yCoor = 14.2193930499
SN.node[1].zCoor = 2
SN.node[2].xCoor = -22.8011320163
SN.node[2].yCoor = -5.72708988503
SN.node[2].zCoor = 2
SN.node[3].xCoor = -24.2116581838
SN.node[3].yCoor = 22.1862095345
SN.node[3].zCoor = 2
SN.node[4].xCoor = -22.8486420746
SN.node[4].yCoor = -21.8548726438
SN.node[4].zCoor = 2
SN.node[5].xCoor = -23.1954851613
SN.node[5].yCoor = 47.2953774404
SN.node[5].zCoor = 2
SN.node[6].xCoor = -45.6777476394
SN.node[6].yCoor = -20.5043966859
SN.node[6].zCoor = 2
SN.node[7].xCoor = 19.8662358427
SN.node[7].yCoor = 18.1829973253
SN.node[7].zCoor = 2
SN.node[8].xCoor = -25.1511211127
SN.node[8].yCoor = -14.3695869801
SN.node[8].zCoor = 2
SN.node[9].xCoor = -3.79635147685
SN.node[9].yCoor = 30.5114943297
SN.node[9].zCoor = 2
SN.node[10].xCoor = -46.7719733867
SN.node[10].yCoor = -18.7120169419
SN.node[10].zCoor = 2
SN.node[11].xCoor = -26.6052414361
SN.node[11].yCoor = -3.07014188871
SN.node[11].zCoor = 2
SN.node[12].xCoor = -43.4445358641
SN.node[12].yCoor = -7.01959435637
SN.node[12].zCoor = 2
SN.node[13].xCoor = 1.56646687967
SN.node[13].yCoor = -23.4041129102
SN.node[13].zCoor = 2
SN.node[14].xCoor = -49.5752869376
SN.node[14].yCoor = 17.4627098348
SN.node[14].zCoor = 2
SN.node[15].xCoor = 9.23594954098
SN.node[15].yCoor = -12.97694011
SN.node[15].zCoor = 2
SN.node[16].xCoor = 12.6179854464
SN.node[16].yCoor = -43.9000007295
SN.node[16].zCoor = 2
SN.node[17].xCoor = -42.4318608888
SN.node[17].yCoor = 5.89972815805
SN.node[17].zCoor = 2
SN.node[18].xCoor = -22.6231968547
SN.node[18].yCoor = 15.1795842017
SN.node[18].zCoor = 2
SN.node[19].xCoor = -42.2462974997
SN.node[19].yCoor = -36.5219260425
SN.node[19].zCoor = 2
SN.node[20].xCoor = -33.1223048799
SN.node[20].yCoor = -27.8792025901
SN.node[20].zCoor = 2
SN.node[21].xCoor = 1.46826687747
SN.node[21].yCoor = -29.1331694702
SN.node[21].zCoor = 2
SN.node[22].xCoor = -51.8275263406
SN.node[22].yCoor = 22.7689486774
SN.node[22].zCoor = 2
SN.node[23].xCoor = -7.67798669529
SN.node[23].yCoor = 15.1599952393
SN.node[23].zCoor = 2
SN.node[24].xCoor = -37.1346794741
SN.node[24].yCoor = -42.1540536586
SN.node[24].zCoor = 2
SN.node[25].xCoor = -20.705828803
SN.node[25].yCoor = -13.1691252927
SN.node[25].zCoor = 2
SN.node[26].xCoor = 2.01284976743
SN.node[26].yCoor = 7.6767254774
SN.node[26].zCoor = 2
# 22.4294676284
# 23.5093849298
# 10.5168905924
# 36.4915025723
# 33.5892116855
# 44.8153927926
# 37.4229057864
# 29.6352310851
# 21.1903363278
# 44.1628262031
# 19.612707116
# 33.6484603962
# 42.1095752079
# 32.3918907852
# 32.8471448225
# 52.0738418419
# 22.8155301028
# 20.9074312696
# 36.4202744998
# 24.4385496005
# 33.7171808462
# 40.676231158
# 25.7872032099
# 39.1455523973
# 7.73137675743
# 28.2027650814
SN.wirelessChannel.seed = 21

[Config top2]
SN.node[0].xCoor = 0
SN.node[0].yCoor = 0
SN.node[0].zCoor = 2
SN.node[1].xCoor = 22.2348576944
SN.node[1].yCoor = -29.2007023265
SN.node[1].zCoor = 2
SN.node[2].xCoor = 28.1501504602
SN.node[2].yCoor = 0.723575483918
SN.node[2].zCoor = 2
SN.node[3].xCoor = 54.8792881238
SN.node[3].yCoor = -58.8673092436
SN.node[3].zCoor = 2
SN.node[4].xCoor = 20.567742195
SN.node[4].yCoor = -49.6919075507
SN.node[4].zCoor = 2
SN.node[5].xCoor = -1.89483609634
SN.node[5].yCoor = 0.759562746341
SN.node[5].zCoor = 2
SN.node[6].xCoor = 50.062986664
SN.node[6].yCoor = 7.74510262019
SN.node[6].zCoor = 2
SN.node[7].xCoor = -16.3602444754
SN.node[7].yCoor = -39.8990489085
SN.node[7].zCoor = 2
SN.node[8].xCoor = 24.6654441374
SN.node[8].yCoor = -59.6373134721
SN.node[8].zCoor = 2
SN.node[9].xCoor = 4.0163996134
SN.node[9].yCoor = -33.5106239698
SN.node[9].zCoor = 2
SN.node[10].xCoor = 61.85384195
SN.node[10].yCoor = -44.5951305258
SN.node[10].zCoor = 2
SN.node[11].xCoor = 20.535847869
SN.node[11].yCoor = -52.0920537424
SN.node[11].zCoor = 2
SN.node[12].xCoor = 7.03533104144
SN.node[12].yCoor = -43.7529940299
SN.node[12].zCoor = 2
SN.node[13].xCoor = 54.2687678923
SN.node[13].yCoor = 9.59066134543
SN.node[13].zCoor = 2
SN.node[14].xCoor = 32.1042752129
SN.node[14].yCoor = -33.8142137782
SN.node[14].zCoor = 2
SN.node[15].xCoor = -2.70639577286
SN.node[15].yCoor = -19.4833470817
SN.node[15].zCoor = 2
SN.node[16].xCoor = 9.33556681504
SN.node[16].yCoor = 24.8701760535
SN.node[16].zCoor = 2
SN.node[17].xCoor = 5.36699618584
SN.node[17].yCoor = -24.3178871376
SN.node[17].zCoor = 2
SN.node[18].xCoor = 34.8435872708
SN.node[18].yCoor = 35.6402566068
SN.node[18].zCoor = 2
SN.node[19].xCoor = 26.1962195397
SN.node[19].yCoor = -13.1815830635
SN.node[19].zCoor = 2
SN.node[20].xCoor = 10.67168411
SN.node[20].yCoor = -34.9332555973
SN.node[20].zCoor = 2
SN.node[21].xCoor = 67.7590965008
SN.node[21].yCoor = 36.2083154043
SN.node[21].zCoor = 2
SN.node[22].xCoor = -8.29181841459
SN.node[22].yCoor = 6.24335960308
SN.node[22].zCoor = 2
SN.node[23].xCoor = 25.0471279975
SN.node[23].yCoor = -8.66967413005
SN.node[23].zCoor = 2
SN.node[24].xCoor = -2.91647280046
SN.node[24].yCoor = -11.8684127671
SN.node[24].zCoor = 2
SN.node[25].xCoor = 67.1218308574
SN.node[25].yCoor = -19.4704287601
SN.node[25].zCoor = 2
SN.node[26].xCoor = 33.8615316963
SN.node[26].yCoor = 4.04440192883
SN.node[26].zCoor = 2
# 36.7024510496
# 28.1594483684
# 44.1108422504
# 20.5589096411
# 38.4689433916
# 46.2536189407
# 40.0504248552
# 30.5335069799
# 18.7213151092
# 42.5047330663
# 22.9543155862
# 21.0426900442
# 50.308461496
# 10.894488977
# 36.8842265068
# 30.6112214197
# 33.8547924068
# 35.5524502247
# 14.041769129
# 39.7102806426
# 53.1792757911
# 36.8576330248
# 9.89251670274
# 33.5215341077
# 43.8929342878
# 6.60664543481
SN.wirelessChannel.seed = 22

[Config top3]
SN.node[0].xCoor = 0
SN.node[0].yCoor = 0
SN.node[0].zCoor = 2
SN.node[1].xCoor = -2.53161165152
SN.node[1].yCoor = 4.80818851426
SN.node[1].zCoor = 2
SN.node[2].xCoor = -13.9701600502
SN.node[2].yCoor = 0.764343329898
SN.node[2].zCoor = 2
SN.node[3].xCoor = -18.4587099705
SN.node[3].yCoor = 29.7100251935
SN.node[3].zCoor = 2
SN.node[4].xCoor = -8.5780574397
SN.node[4].yCoor = 41.8138954228
SN.node[4].zCoor = 2
SN.node[5].xCoor = 13.7209001971
SN.node[5].yCoor = -10.1421217227
SN.node[5].zCoor = 2
SN.node[6].xCoor = 35.9487429714
SN.node[6].yCoor = -8.86945434114
SN.node[6].zCoor = 2
SN.node[7].xCoor = 23.9286237283
SN.node[7].yCoor = 37.618594868
SN.node[7].zCoor = 2
SN.node[8].xCoor = 15.9996228957
SN.node[8].yCoor = 42.7990927665
SN.node[8].zCoor = 2
SN.node[9].xCoor = -31.0318878368
SN.node[9].yCoor = 32.1867897384
SN.node[9].zCoor = 2
SN.node[10].xCoor = 31.3149163589
SN.node[10].yCoor = 25.132456372
SN.node[10].zCoor = 2
SN.node[11].xCoor = -22.0985025115
SN.node[11].yCoor = -1.47421466184
SN.node[11].zCoor = 2
SN.node[12].xCoor = -36.8464700034
SN.node[12].yCoor = 10.7974152574
SN.node[12].zCoor = 2
SN.node[13].xCoor = -12.0621451613
SN.node[13].yCoor = 26.200388257
SN.node[13].zCoor = 2
SN.node[14].xCoor = 28.3938927185
SN.node[14].yCoor = 4.6437434167
SN.node[14].zCoor = 2
SN.node[15].xCoor = -8.8216951644
SN.node[15].yCoor = 35.1772944236
SN.node[15].zCoor = 2
SN.node[16].xCoor = -34.8474404568
SN.node[16].yCoor = 7.21529717788
SN.node[16].zCoor = 2
SN.node[17].xCoor = -21.8191729249
SN.node[17].yCoor = -18.1921748333
SN.node[17].zCoor = 2
SN.node[18].xCoor = -31.0005656912
SN.node[18].yCoor = 12.8900456786
SN.node[18].zCoor = 2
SN.node[19].xCoor = 2.13657997094
SN.node[19].yCoor = 3.50004171048
SN.node[19].zCoor = 2
SN.node[20].xCoor = -50.5341347089
SN.node[20].yCoor = 4.42725361185
SN.node[20].zCoor = 2
SN.node[21].xCoor = -5.76515496758
SN.node[21].yCoor = -32.3040287131
SN.node[21].zCoor = 2
SN.node[22].xCoor = 4.8065468456
SN.node[22].yCoor = -13.1568511094
SN.node[22].zCoor = 2
SN.node[23].xCoor = 2.49066852403
SN.node[23].yCoor = 19.0232436387
SN.node[23].zCoor = 2
SN.node[24].xCoor = -16.2255506714
SN.node[24].yCoor = 18.3117263738
SN.node[24].zCoor = 2
SN.node[25].xCoor = -1.751826198
SN.node[25].yCoor = -25.4056667445
SN.node[25].zCoor = 2
SN.node[26].xCoor = 6.67558249439
SN.node[26].yCoor = -15.1400421166
SN.node[26].zCoor = 2
# 5.433942799
# 13.9910540187
# 29.5596672996
# 37.4964245025
# 22.0829327212
# 40.8388981975
# 42.1505257554
# 42.2695571274
# 39.5202928586
# 39.4799103635
# 20.5507130678
# 34.8336093549
# 23.4191647761
# 30.9259415819
# 34.7959465118
# 21.8512160468
# 20.5172265177
# 20.9061563599
# 16.3374147202
# 36.7469883742
# 34.0710924096
# 23.3744385273
# 24.5834561817
# 17.6917336218
# 28.8817781554
# 26.0613921663
SN.wirelessChannel.seed = 23

[Config top4]
SN.node[0].xCoor = 0
SN.node[0].yCoor = 0
SN.node[0].zCoor = 2
SN.node[1].xCoor = 27.340404054
SN.node[1].yCoor = -8.52563729832
SN.node[1].zCoor = 2
SN.node[2].xCoor = 2.65601819274
SN.node[2].yCoor = -0.102205994987
SN.node[2].zCoor = 2
SN.node[3].xCoor = 49.7887181882
SN.node[3].yCoor = -12.9490735138
SN.node[3].zCoor = 2
SN.node[4].xCoor = 63.3398787762
SN.node[4].yCoor = -34.4301803155
SN.node[4].zCoor = 2
SN.node[5].xCoor = 33.2065494319
SN.node[5].yCoor = -26.1580439926
SN.node[5].zCoor = 2
SN.node[6].xCoor = -11.3582081305
SN.node[6].yCoor = -35.8864955491
SN.node[6].zCoor = 2
SN.node[7].xCoor = -1.97115898628
SN.node[7].yCoor = -7.08616209617
SN.node[7].zCoor = 2
SN.node[8].xCoor = 16.7186134015
SN.node[8].yCoor = -7.58158273457
SN.node[8].zCoor = 2
SN.node[9].xCoor = 22.3606944738
SN.node[9].yCoor = 3.01331099577
SN.node[9].zCoor = 2
SN.node[10].xCoor = 25.3225185733
SN.node[10].yCoor = -3.94775695746
SN.node[10].zCoor = 2
SN.node[11].xCoor = 6.07600380756
SN.node[11].yCoor = -11.1671446097
SN.node[11].zCoor = 2
SN.node[12].xCoor = 66.6106046102
SN.node[12].yCoor = -38.5633832486
SN.node[12].zCoor = 2
SN.node[13].xCoor = 66.8283582005
SN.node[13].yCoor = 0.58032916194
SN.node[13].zCoor = 2
SN.node[14].xCoor = 35.3056656775
SN.node[14].yCoor = 28.3816408736
SN.node[14].zCoor = 2
SN.node[15].xCoor = -3.39955307761
SN.node[15].yCoor = 20.0828550545
SN.node[15].zCoor = 2
SN.node[16].xCoor = -6.91557465078
SN.node[16].yCoor = -31.8936370233
SN.node[16].zCoor = 2
SN.node[17].xCoor = 13.7974453306
SN.node[17].yCoor = -13.6291974777
SN.node[17].zCoor = 2
SN.node[18].xCoor = 29.6082686284
SN.node[18].yCoor = -20.4668013771
SN.node[18].zCoor = 2
SN.node[19].xCoor = -21.7963132635
SN.node[19].yCoor = 7.57274450781
SN.node[19].zCoor = 2
SN.node[20].xCoor = 2.84355442313
SN.node[20].yCoor = -39.7124102656
SN.node[20].zCoor = 2
SN.node[21].xCoor = 24.416884505
SN.node[21].yCoor = 33.7129794339
SN.node[21].zCoor = 2
SN.node[22].xCoor = -35.8465934563
SN.node[22].yCoor = -33.3009141667
SN.node[22].zCoor = 2
SN.node[23].xCoor = 27.069916566
SN.node[23].yCoor = -0.202247606
SN.node[23].zCoor = 2
SN.node[24].xCoor = 0.623479460312
SN.node[24].yCoor = -37.9848071356
SN.node[24].zCoor = 2
SN.node[25].xCoor = -25.6239735608
SN.node[25].yCoor = -32.1452915834
SN.node[25].zCoor = 2
SN.node[26].xCoor = -17.4977161376
SN.node[26].yCoor = 15.3656493199
SN.node[26].zCoor = 2
# 28.6388579587
# 2.6579839551
# 22.8799824174
# 44.3509586052
# 18.5826108884
# 47.3940834833
# 29.3468876837
# 10.6636614577
# 12.567610562
# 5.00288419097
# 21.4278388718
# 49.441023791
# 40.5242784989
# 37.7570202054
# 21.0738376425
# 33.2010613744
# 17.5245798021
# 33.7807718772
# 25.6285266621
# 39.6106482174
# 40.2119642427
# 50.8390138384
# 24.4141033443
# 37.9370884871
# 42.7377733113
# 25.4052662946
SN.wirelessChannel.seed = 24

[Config top5]
#positions
#positions
SN.node[0].xCoor = 0
SN.node[0].yCoor = 0
SN.node[0].zCoor = 2
SN.node[1].xCoor = 5.34777560964
SN.node[1].yCoor = 18.1213791823
SN.node[1].zCoor = 2
SN.node[2].xCoor = 20.7667980255
SN.node[2].yCoor = -22.6888080103
SN.node[2].zCoor = 2
SN.node[3].xCoor = -21.7999313936
SN.node[3].yCoor = 27.8112829137
SN.node[3].zCoor = 2
SN.node[4].xCoor = 26.9655227071
SN.node[4].yCoor = -17.2453650237
SN.node[4].zCoor = 2
SN.node[5].xCoor = 9.79557831388
SN.node[5].yCoor = 33.8958478152
SN.node[5].zCoor = 2
SN.node[6].xCoor = 3.10227504408
SN.node[6].yCoor = 46.5615250192
SN.node[6].zCoor = 2
SN.node[7].xCoor = -0.776539657246
SN.node[7].yCoor = -3.36392641248
SN.node[7].zCoor = 2
SN.node[8].xCoor = 7.16475513601
SN.node[8].yCoor = 49.1929695884
SN.node[8].zCoor = 2
SN.node[9].xCoor = 38.2234119615
SN.node[9].yCoor = 9.34021797817
SN.node[9].zCoor = 2
SN.node[10].xCoor = -20.2372977396
SN.node[10].yCoor = 33.6640789385
SN.node[10].zCoor = 2
SN.node[11].xCoor = -5.89509423279
SN.node[11].yCoor = 4.76792038302
SN.node[11].zCoor = 2
SN.node[12].xCoor = 23.8006241296
SN.node[12].yCoor = 52.4983295543
SN.node[12].zCoor = 2
SN.node[13].xCoor = -21.2348120769
SN.node[13].yCoor = 19.423594408
SN.node[13].zCoor = 2
SN.node[14].xCoor = -5.01027902157
SN.node[14].yCoor = 9.66445562053
SN.node[14].zCoor = 2
SN.node[15].xCoor = -17.8833023269
SN.node[15].yCoor = 1.63276320307
SN.node[15].zCoor = 2
SN.node[16].xCoor = 50.3325310248
SN.node[16].yCoor = 3.38306701529
SN.node[16].zCoor = 2
SN.node[17].xCoor = 47.4996929164
SN.node[17].yCoor = 10.5794132984
SN.node[17].zCoor = 2
SN.node[18].xCoor = -2.67850817195
SN.node[18].yCoor = -14.0272004431
SN.node[18].zCoor = 2
SN.node[19].xCoor = 48.8715521866
SN.node[19].yCoor = 11.8978154757
SN.node[19].zCoor = 2
SN.node[20].xCoor = 53.5415224764
SN.node[20].yCoor = -58.4866090822
SN.node[20].zCoor = 2
SN.node[21].xCoor = -1.17710928441
SN.node[21].yCoor = 10.4449633173
SN.node[21].zCoor = 2
SN.node[22].xCoor = 22.9208857443
SN.node[22].yCoor = -20.2798557485
SN.node[22].zCoor = 2
SN.node[23].xCoor = 25.7548446672
SN.node[23].yCoor = -36.2109249357
SN.node[23].zCoor = 2
SN.node[24].xCoor = 42.5217998263
SN.node[24].yCoor = -57.6785753696
SN.node[24].zCoor = 2
SN.node[25].xCoor = 48.1015768788
SN.node[25].yCoor = 16.973532749
SN.node[25].zCoor = 2
SN.node[26].xCoor = 23.2399917072
SN.node[26].yCoor = -59.3107318809
SN.node[26].zCoor = 2
# 18.8939960686
# 30.7577942831
# 28.8252012978
# 41.4503749718
# 16.3895335366
# 28.5286552086
# 22.3411189064
# 31.1246710017
# 34.0281685906
# 29.9361235633
# 17.4561445972
# 39.0164367336
# 26.6144647251
# 13.3719427112
# 45.6658415398
# 39.4192241823
# 42.6781234157
# 24.9941158744
# 44.5658134742
# 48.5351946984
# 39.7414376994
# 3.23158550865
# 14.4127809754
# 41.201503895
# 48.16940325
# 36.7053401425
SN.wirelessChannel.seed = 25

[Config top6]
SN.node[0].xCoor = 0
SN.node[0].yCoor = 0
SN.node[0].zCoor = 2
SN.node[1].xCoor = 17.4373771055
SN.node[1].yCoor = 25.5278841337
SN.node[1].zCoor = 2
SN.node[2].xCoor = 6.29033563338
SN.node[2].yCoor = -7.23134912444
SN.node[2].zCoor = 2
SN.node[3].xCoor = 12.8355130181
SN.node[3].yCoor = 37.4887013144
SN.node[3].zCoor = 2
SN.node[4].xCoor = -2.9594446201
SN.node[4].yCoor = 62.5418157412
SN.node[4].zCoor = 2
SN.node[5].xCoor = 35.4238589704
SN.node[5].yCoor = 29.8398978825
SN.node[5].zCoor = 2
SN.node[6].xCoor = 23.6598171294
SN.node[6].yCoor = 22.1189453353
SN.node[6].zCoor = 2
SN.node[7].xCoor = 18.9765175904
SN.node[7].yCoor = -9.59327704453
SN.node[7].zCoor = 2
SN.node[8].xCoor = 22.2359058155
SN.node[8].yCoor = 59.9896134791
SN.node[8].zCoor = 2
SN.node[9].xCoor = 14.1340111313
SN.node[9].yCoor = 16.3305359127
SN.node[9].zCoor = 2
SN.node[10].xCoor = 21.8275125888
SN.node[10].yCoor = 33.4539254422
SN.node[10].zCoor = 2
SN.node[11].xCoor = 5.54130893543
SN.node[11].yCoor = -13.4787047304
SN.node[11].zCoor = 2
SN.node[12].xCoor = 54.5878066266
SN.node[12].yCoor = 35.400158908
SN.node[12].zCoor = 2
SN.node[13].xCoor = 10.7010368318
SN.node[13].yCoor = -14.0885524841
SN.node[13].zCoor = 2
SN.node[14].xCoor = 4.23488834955
SN.node[14].yCoor = -9.1070903307
SN.node[14].zCoor = 2
SN.node[15].xCoor = -5.7403765503
SN.node[15].yCoor = -43.8017902772
SN.node[15].zCoor = 2
SN.node[16].xCoor = 25.2168442978
SN.node[16].yCoor = -34.3088889088
SN.node[16].zCoor = 2
SN.node[17].xCoor = 35.8314375966
SN.node[17].yCoor = -5.3008154958
SN.node[17].zCoor = 2
SN.node[18].xCoor = -13.0907028316
SN.node[18].yCoor = 2.18664047441
SN.node[18].zCoor = 2
SN.node[19].xCoor = -19.1450715488
SN.node[19].yCoor = -28.6672572301
SN.node[19].zCoor = 2
SN.node[20].xCoor = 0.0590509496271
SN.node[20].yCoor = 15.2406764198
SN.node[20].zCoor = 2
SN.node[21].xCoor = 40.7338106199
SN.node[21].yCoor = -42.57323097
SN.node[21].zCoor = 2
SN.node[22].xCoor = -11.7688410565
SN.node[22].yCoor = -6.03974690928
SN.node[22].zCoor = 2
SN.node[23].xCoor = -26.8521635714
SN.node[23].yCoor = 8.13780603519
SN.node[23].zCoor = 2
SN.node[24].xCoor = 39.5911527206
SN.node[24].yCoor = -2.1530142196
SN.node[24].zCoor = 2
SN.node[25].xCoor = -19.8467769009
SN.node[25].yCoor = 22.7051669488
SN.node[25].zCoor = 2
SN.node[26].xCoor = 44.9544922869
SN.node[26].yCoor = 29.5788427761
SN.node[26].zCoor = 2
# 30.9149638309
# 9.5844004789
# 12.815549177
# 42.2618204713
# 18.4961345272
# 7.09504218334
# 35.1548704441
# 34.7942045067
# 9.77258620112
# 9.06065231567
# 40.7802698952
# 38.4397739695
# 40.1850759683
# 37.0659839408
# 38.4985090848
# 33.0364327826
# 29.6041156817
# 21.5481595517
# 33.2634648652
# 23.319966571
# 49.3497880596
# 18.0984468548
# 36.5326728266
# 33.6858116139
# 39.7409567855
# 53.3845224525
SN.wirelessChannel.seed = 26

[Config top7]
SN.node[0].xCoor = 0
SN.node[0].yCoor = 0
SN.node[0].zCoor = 2
SN.node[1].xCoor = -20.2635025836
SN.node[1].yCoor = -19.2259053562
SN.node[1].zCoor = 2
SN.node[2].xCoor = -25.5696496303
SN.node[2].yCoor = -8.46190338387
SN.node[2].zCoor = 2
SN.node[3].xCoor = -47.0522623069
SN.node[3].yCoor = -8.87881812356
SN.node[3].zCoor = 2
SN.node[4].xCoor = -39.1438334796
SN.node[4].yCoor = -43.5354542448
SN.node[4].zCoor = 2
SN.node[5].xCoor = 5.12140680611
SN.node[5].yCoor = -24.5887500456
SN.node[5].zCoor = 2
SN.node[6].xCoor = -35.5492593531
SN.node[6].yCoor = -37.9335518264
SN.node[6].zCoor = 2
SN.node[7].xCoor = -32.2291695949
SN.node[7].yCoor = -51.7940074148
SN.node[7].zCoor = 2
SN.node[8].xCoor = -16.4032956451
SN.node[8].yCoor = 17.5131903551
SN.node[8].zCoor = 2
SN.node[9].xCoor = 7.42153743468
SN.node[9].yCoor = -16.8754452954
SN.node[9].zCoor = 2
SN.node[10].xCoor = 8.66170588119
SN.node[10].yCoor = -49.5016181743
SN.node[10].zCoor = 2
SN.node[11].xCoor = -22.1095653694
SN.node[11].yCoor = -10.7426014915
SN.node[11].zCoor = 2
SN.node[12].xCoor = -10.6898656734
SN.node[12].yCoor = 7.11568127186
SN.node[12].zCoor = 2
SN.node[13].xCoor = -59.3853331023
SN.node[13].yCoor = 9.12418149115
SN.node[13].zCoor = 2
SN.node[14].xCoor = -14.9838823319
SN.node[14].yCoor = -5.61520909532
SN.node[14].zCoor = 2
SN.node[15].xCoor = -20.8021400017
SN.node[15].yCoor = -27.0096093332
SN.node[15].zCoor = 2
SN.node[16].xCoor = -3.64832218531
SN.node[16].yCoor = -39.26221327
SN.node[16].zCoor = 2
SN.node[17].xCoor = -38.7548892035
SN.node[17].yCoor = -5.24864998559
SN.node[17].zCoor = 2
SN.node[18].xCoor = -7.57984282852
SN.node[18].yCoor = -25.0172167241
SN.node[18].zCoor = 2
SN.node[19].xCoor = -65.2726687371
SN.node[19].yCoor = 9.15340153825
SN.node[19].zCoor = 2
SN.node[20].xCoor = -45.8998893975
SN.node[20].yCoor = -2.65319512036
SN.node[20].zCoor = 2
SN.node[21].xCoor = -52.8005705201
SN.node[21].yCoor = -7.57488110524
SN.node[21].zCoor = 2
SN.node[22].xCoor = 12.2235973723
SN.node[22].yCoor = 10.5192981045
SN.node[22].zCoor = 2
SN.node[23].xCoor = -53.5281454622
SN.node[23].yCoor = -26.18845578
SN.node[23].zCoor = 2
SN.node[24].xCoor = 12.577817312
SN.node[24].yCoor = 13.6906985488
SN.node[24].zCoor = 2
SN.node[25].xCoor = -22.6540143286
SN.node[25].yCoor = 3.81743297567
SN.node[25].zCoor = 2
SN.node[26].xCoor = -47.9000123805
SN.node[26].yCoor = 19.0050976581
SN.node[26].zCoor = 2
# 27.9328654763
# 26.9334511545
# 28.7175880205
# 30.7802056834
# 25.9452062602
# 24.1584435854
# 34.69666351
# 36.9413366202
# 27.7846379014
# 41.8722637479
# 8.68184267714
# 28.0273742932
# 48.3140253694
# 14.5988164831
# 19.1506277715
# 37.8048103557
# 13.5711289142
# 24.4481399816
# 43.4353392262
# 21.1437872833
# 27.2453640283
# 42.2920267774
# 33.1045034555
# 44.1131160371
# 12.620738118
# 35.3988876491
SN.wirelessChannel.seed = 27

[Config top8]
SN.node[0].xCoor = 0
SN.node[0].yCoor = 0
SN.node[0].zCoor = 2
SN.node[1].xCoor = -24.4991003556
SN.node[1].yCoor = -11.5221559165
SN.node[1].zCoor = 2
SN.node[2].xCoor = 29.3946001345
SN.node[2].yCoor = 5.54694747811
SN.node[2].zCoor = 2
SN.node[3].xCoor = -51.3155322944
SN.node[3].yCoor = -44.9179889453
SN.node[3].zCoor = 2
SN.node[4].xCoor = -24.2182945572
SN.node[4].yCoor = 19.9289440664
SN.node[4].zCoor = 2
SN.node[5].xCoor = -36.9203047931
SN.node[5].yCoor = -40.9505989181
SN.node[5].zCoor = 2
SN.node[6].xCoor = -56.4237553567
SN.node[6].yCoor = -1.55921181414
SN.node[6].zCoor = 2
SN.node[7].xCoor = 13.0554119514
SN.node[7].yCoor = -11.3317437437
SN.node[7].zCoor = 2
SN.node[8].xCoor = -61.8601768139
SN.node[8].yCoor = -20.5919774048
SN.node[8].zCoor = 2
SN.node[9].xCoor = -27.7941226956
SN.node[9].yCoor = -16.0744442463
SN.node[9].zCoor = 2
SN.node[10].xCoor = -30.5338938694
SN.node[10].yCoor = 15.5209854486
SN.node[10].zCoor = 2
SN.node[11].xCoor = 2.22336783776
SN.node[11].yCoor = -44.7053401187
SN.node[11].zCoor = 2
SN.node[12].xCoor = -63.8390661312
SN.node[12].yCoor = -19.1850260756
SN.node[12].zCoor = 2
SN.node[13].xCoor = -40.6581292849
SN.node[13].yCoor = 4.22433422222
SN.node[13].zCoor = 2
SN.node[14].xCoor = 11.986485264
SN.node[14].yCoor = -51.144856516
SN.node[14].zCoor = 2
SN.node[15].xCoor = 4.97651415671
SN.node[15].yCoor = 43.8450850986
SN.node[15].zCoor = 2
SN.node[16].xCoor = 38.1140368631
SN.node[16].yCoor = -17.0496780939
SN.node[16].zCoor = 2
SN.node[17].xCoor = 40.0685899503
SN.node[17].yCoor = 20.208680925
SN.node[17].zCoor = 2
SN.node[18].xCoor = 18.1278350409
SN.node[18].yCoor = 2.99895387331
SN.node[18].zCoor = 2
SN.node[19].xCoor = -4.7025914337
SN.node[19].yCoor = 16.6832228144
SN.node[19].zCoor = 2
SN.node[20].xCoor = 5.08009543697
SN.node[20].yCoor = 9.38299000193
SN.node[20].zCoor = 2
SN.node[21].xCoor = 57.3195130466
SN.node[21].yCoor = -6.97627040652
SN.node[21].zCoor = 2
SN.node[22].xCoor = 60.6284013464
SN.node[22].yCoor = 13.6643784676
SN.node[22].zCoor = 2
SN.node[23].xCoor = 59.9412182597
SN.node[23].yCoor = -4.74494987808
SN.node[23].zCoor = 2
SN.node[24].xCoor = 44.1465885241
SN.node[24].yCoor = 12.3951021338
SN.node[24].zCoor = 2
SN.node[25].xCoor = 2.39798991842
SN.node[25].yCoor = -4.26971277906
SN.node[25].zCoor = 2
SN.node[26].xCoor = 11.4628674082
SN.node[26].yCoor = -34.3209991994
SN.node[26].zCoor = 2
# 27.0733447361
# 29.9133940467
# 42.8299274528
# 31.4523535213
# 31.9424416283
# 33.4431435742
# 37.5549950261
# 38.4462182269
# 5.61965312613
# 27.708306113
# 42.6053285416
# 40.0793274183
# 22.562494712
# 53.8623835418
# 45.420152664
# 24.2205710937
# 18.1356137546
# 11.5512885465
# 35.8696961404
# 24.6152465137
# 30.6044399938
# 32.2713963753
# 32.233818112
# 16.2640211398
# 28.7260122844
# 43.7149884004
SN.wirelessChannel.seed = 28

[Config top9]
SN.node[0].xCoor = 0
SN.node[0].yCoor = 0
SN.node[0].zCoor = 2
SN.node[1].xCoor = 3.82908110715
SN.node[1].yCoor = -14.1205690364
SN.node[1].zCoor = 2
SN.node[2].xCoor = -29.4947264211
SN.node[2].yCoor = 22.2160003552
SN.node[2].zCoor = 2
SN.node[3].xCoor = -10.4134469574
SN.node[3].yCoor = -52.8562481632
SN.node[3].zCoor = 2
SN.node[4].xCoor = 7.80632371631
SN.node[4].yCoor = -49.2618623654
SN.node[4].zCoor = 2
SN.node[5].xCoor = 31.1736768307
SN.node[5].yCoor = -40.7090826881
SN.node[5].zCoor = 2
SN.node[6].xCoor = -12.4018870731
SN.node[6].yCoor = 16.5006382429
SN.node[6].zCoor = 2
SN.node[7].xCoor = 22.9150521802
SN.node[7].yCoor = -50.2725626507
SN.node[7].zCoor = 2
SN.node[8].xCoor = -13.3971601967
SN.node[8].yCoor = 16.1133301469
SN.node[8].zCoor = 2
SN.node[9].xCoor = 29.0986393454
SN.node[9].yCoor = 19.6725839249
SN.node[9].zCoor = 2
SN.node[10].xCoor = -14.745424966
SN.node[10].yCoor = -50.2884626084
SN.node[10].zCoor = 2
SN.node[11].xCoor = 23.5250163984
SN.node[11].yCoor = -11.9892702669
SN.node[11].zCoor = 2
SN.node[12].xCoor = -8.39238411758
SN.node[12].yCoor = 8.12698694972
SN.node[12].zCoor = 2
SN.node[13].xCoor = 6.52005453871
SN.node[13].yCoor = -31.9690425686
SN.node[13].zCoor = 2
SN.node[14].xCoor = -11.6230982618
SN.node[14].yCoor = 0.551513252394
SN.node[14].zCoor = 2
SN.node[15].xCoor = -23.8221830027
SN.node[15].yCoor = 27.6407288465
SN.node[15].zCoor = 2
SN.node[16].xCoor = -14.1072132512
SN.node[16].yCoor = -3.78855325296
SN.node[16].zCoor = 2
SN.node[17].xCoor = -31.7780122905
SN.node[17].yCoor = 7.74694518095
SN.node[17].zCoor = 2
SN.node[18].xCoor = -65.0585209438
SN.node[18].yCoor = 17.6208958646
SN.node[18].zCoor = 2
SN.node[19].xCoor = -56.721261949
SN.node[19].yCoor = 45.2004140889
SN.node[19].zCoor = 2
SN.node[20].xCoor = -19.1565754382
SN.node[20].yCoor = -13.7523426612
SN.node[20].zCoor = 2
SN.node[21].xCoor = -41.8504637702
SN.node[21].yCoor = 49.3451978995
SN.node[21].zCoor = 2
SN.node[22].xCoor = -47.6430438479
SN.node[22].yCoor = 51.2406161784
SN.node[22].zCoor = 2
SN.node[23].xCoor = -41.5827479859
SN.node[23].yCoor = 32.6243396667
SN.node[23].zCoor = 2
SN.node[24].xCoor = -19.5975468793
SN.node[24].yCoor = 7.09089199486
SN.node[24].zCoor = 2
SN.node[25].xCoor = 3.15922211416
SN.node[25].yCoor = 4.58016298213
SN.node[25].zCoor = 2
SN.node[26].xCoor = -40.1835494362
SN.node[26].yCoor = 15.193889772
SN.node[26].zCoor = 2
# 14.6305274012
# 36.9254594885
# 41.2710848304
# 35.3656465458
# 38.1402146493
# 34.6569280709
# 40.880813765
# 34.7970120741
# 42.1963003192
# 40.6586866647
# 19.8109136953
# 25.3834189895
# 18.0501896234
# 21.3082107635
# 7.84891253859
# 30.216094551
# 14.648104041
# 35.8594264613
# 35.6309908862
# 37.4245783555
# 29.8103606962
# 34.2314146524
# 15.9516078366
# 18.0754824499
# 37.1120346356